<?xml version="1.0" encoding="UTF-8"?>

<!-- generated on 07/07/15 13:21:52 by SUMO netconvert Version 0.23.0
<?xml version="1.0" encoding="UTF-8"?>

<configuration xmlns:xsi="http://www.w3.org/2001/XMLSchema-instance" xsi:noNamespaceSchemaLocation="http://sumo.dlr.de/xsd/netconvertConfiguration.xsd">

    <input>
        <sumo-net-file value="Y:\oulu\oulu.net.xml"/>
    </input>

    <output>
        <plain-output-prefix value="Y:\oulu\plain_network\oulu"/>
    </output>

    <processing>
        <no-turnarounds value="true"/>
        <offset.disable-normalization value="true"/>
    </processing>

</configuration>
-->

<tlLogics version="0.13" xmlns:xsi="http://www.w3.org/2001/XMLSchema-instance" xsi:noNamespaceSchemaLocation="http://sumo.dlr.de/xsd/tllogic_file.xsd">
    <tlLogic id="1017908372" type="static" programID="0" offset="0">
        <phase duration="17" state="rrrGGggGGGg"/>
        <phase duration="6" state="rrryyggyyyg"/>
        <phase duration="4" state="rrrrrGGrrrG"/>
        <phase duration="6" state="rrrrryyrrry"/>
        <phase duration="17" state="GGGrrrrrrrr"/>
        <phase duration="6" state="yyyrrrrrrrr"/>
    </tlLogic>
    <tlLogic id="1017908418" type="static" programID="0" offset="0">
        <phase duration="31" state="GGgrrrrGgg"/>
        <phase duration="4" state="yygrrrrygg"/>
        <phase duration="6" state="rrGrrrrrGG"/>
        <phase duration="4" state="rryrrrrryy"/>
        <phase duration="31" state="rrrGGGGrrr"/>
        <phase duration="4" state="rrryyyyrrr"/>
    </tlLogic>
    <tlLogic id="1017908433" type="static" programID="0" offset="0">
        <phase duration="31" state="GGGrr"/>
        <phase duration="4" state="yyyrr"/>
        <phase duration="31" state="rrrGG"/>
        <phase duration="4" state="rrryy"/>
    </tlLogic>
    <tlLogic id="1018391502" type="static" programID="0" offset="0">
        <phase duration="31" state="GG"/>
        <phase duration="7" state="yy"/>
    </tlLogic>
    <tlLogic id="1018391526" type="static" programID="0" offset="0">
        <phase duration="31" state="G"/>
        <phase duration="4" state="y"/>
    </tlLogic>
    <tlLogic id="1025497462" type="static" programID="0" offset="0">
        <phase duration="31" state="G"/>
        <phase duration="7" state="y"/>
    </tlLogic>
    <tlLogic id="1042384764" type="static" programID="0" offset="0">
        <phase duration="31" state="GGGGrrr"/>
        <phase duration="4" state="yyyyrrr"/>
        <phase duration="31" state="rrrrGGG"/>
        <phase duration="4" state="rrrryyy"/>
    </tlLogic>
    <tlLogic id="1042385582" type="static" programID="0" offset="0">
        <phase duration="31" state="GggGGgrrrrr"/>
        <phase duration="7" state="yggyygrrrrr"/>
        <phase duration="6" state="rGGrrGrrrrr"/>
        <phase duration="7" state="ryyrryrrrrr"/>
        <phase duration="31" state="rrrrrrGGGGG"/>
        <phase duration="7" state="rrrrrryyyyy"/>
    </tlLogic>
    <tlLogic id="1042385787" type="static" programID="0" offset="0">
        <phase duration="31" state="GGGGGG"/>
        <phase duration="4" state="yyyyyy"/>
    </tlLogic>
    <tlLogic id="1083121628" type="static" programID="0" offset="0">
        <phase duration="31" state="G"/>
        <phase duration="5" state="y"/>
    </tlLogic>
    <tlLogic id="1083121700" type="static" programID="0" offset="0">
        <phase duration="31" state="GGG"/>
        <phase duration="7" state="yyy"/>
    </tlLogic>
    <tlLogic id="1083121728" type="static" programID="0" offset="0">
        <phase duration="31" state="G"/>
        <phase duration="5" state="y"/>
    </tlLogic>
    <tlLogic id="1083121792" type="static" programID="0" offset="0">
        <phase duration="31" state="GG"/>
        <phase duration="7" state="yy"/>
    </tlLogic>
    <tlLogic id="1217859250" type="static" programID="0" offset="0">
        <phase duration="31" state="GGgGGg"/>
        <phase duration="9" state="yyyyyy"/>
    </tlLogic>
    <tlLogic id="122201907" type="static" programID="0" offset="0">
        <phase duration="31" state="rrrrGGGggrrrrGGGgg"/>
        <phase duration="7" state="rrrryyyggrrrryyygg"/>
        <phase duration="6" state="rrrrrrrGGrrrrrrrGG"/>
        <phase duration="7" state="rrrrrrryyrrrrrrryy"/>
        <phase duration="31" state="GGggrrrrrGGggrrrrr"/>
        <phase duration="7" state="yyggrrrrryyggrrrrr"/>
        <phase duration="6" state="rrGGrrrrrrrGGrrrrr"/>
        <phase duration="7" state="rryyrrrrrrryyrrrrr"/>
    </tlLogic>
    <tlLogic id="1222777484" type="static" programID="0" offset="0">
        <phase duration="31" state="G"/>
        <phase duration="7" state="y"/>
    </tlLogic>
    <tlLogic id="1222777490" type="static" programID="0" offset="0">
        <phase duration="31" state="GG"/>
        <phase duration="5" state="yy"/>
    </tlLogic>
    <tlLogic id="1222777494" type="static" programID="0" offset="0">
        <phase duration="31" state="GG"/>
        <phase duration="5" state="yy"/>
    </tlLogic>
    <tlLogic id="1286188670" type="static" programID="0" offset="0">
        <phase duration="31" state="GGrrr"/>
        <phase duration="5" state="yyrrr"/>
        <phase duration="31" state="rrGGG"/>
        <phase duration="5" state="rryyy"/>
    </tlLogic>
    <tlLogic id="1286188672" type="static" programID="0" offset="0">
        <phase duration="31" state="rrrGggGGg"/>
        <phase duration="4" state="rrryggyyg"/>
        <phase duration="6" state="rrrrGGrrG"/>
        <phase duration="4" state="rrrryyrry"/>
        <phase duration="31" state="GGGrrrrrr"/>
        <phase duration="4" state="yyyrrrrrr"/>
    </tlLogic>
    <tlLogic id="1286210806" type="static" programID="0" offset="0">
        <phase duration="31" state="GGGrr"/>
        <phase duration="5" state="yyyrr"/>
        <phase duration="31" state="rrrGG"/>
        <phase duration="5" state="rrryy"/>
    </tlLogic>
    <tlLogic id="1286210808" type="static" programID="0" offset="0">
        <phase duration="31" state="GG"/>
        <phase duration="5" state="yy"/>
    </tlLogic>
    <tlLogic id="1413123424" type="static" programID="0" offset="0">
        <phase duration="31" state="G"/>
        <phase duration="3" state="y"/>
    </tlLogic>
    <tlLogic id="1414841763" type="static" programID="0" offset="0">
        <phase duration="31" state="GgGg"/>
        <phase duration="7" state="yyyy"/>
    </tlLogic>
    <tlLogic id="1414841778" type="static" programID="0" offset="0">
        <phase duration="31" state="GGG"/>
        <phase duration="5" state="yyy"/>
    </tlLogic>
    <tlLogic id="1414841840" type="static" programID="0" offset="0">
        <phase duration="31" state="GGG"/>
        <phase duration="5" state="yyy"/>
    </tlLogic>
    <tlLogic id="1414841856" type="static" programID="0" offset="0">
        <phase duration="31" state="GG"/>
        <phase duration="5" state="yy"/>
    </tlLogic>
    <tlLogic id="1414841858" type="static" programID="0" offset="0">
        <phase duration="31" state="G"/>
        <phase duration="7" state="y"/>
    </tlLogic>
    <tlLogic id="1414841860" type="static" programID="0" offset="0">
        <phase duration="31" state="GgGg"/>
        <phase duration="7" state="yyyy"/>
    </tlLogic>
    <tlLogic id="1414841861" type="static" programID="0" offset="0">
        <phase duration="31" state="GG"/>
        <phase duration="9" state="yy"/>
    </tlLogic>
    <tlLogic id="1414841862" type="static" programID="0" offset="0">
        <phase duration="31" state="GGG"/>
        <phase duration="5" state="yyy"/>
    </tlLogic>
    <tlLogic id="1432010134" type="static" programID="0" offset="0">
        <phase duration="31" state="GG"/>
        <phase duration="5" state="yy"/>
    </tlLogic>
    <tlLogic id="1432010256" type="static" programID="0" offset="0">
        <phase duration="31" state="GG"/>
        <phase duration="5" state="yy"/>
    </tlLogic>
    <tlLogic id="1446617949" type="static" programID="0" offset="0">
        <phase duration="31" state="GG"/>
        <phase duration="4" state="yy"/>
    </tlLogic>
    <tlLogic id="1446617972" type="static" programID="0" offset="0">
        <phase duration="31" state="GG"/>
        <phase duration="4" state="yy"/>
    </tlLogic>
    <tlLogic id="1446617975" type="static" programID="0" offset="0">
        <phase duration="31" state="GgGg"/>
        <phase duration="3" state="yyyy"/>
    </tlLogic>
    <tlLogic id="1446618042" type="static" programID="0" offset="0">
        <phase duration="31" state="GgGg"/>
        <phase duration="7" state="yyyy"/>
    </tlLogic>
    <tlLogic id="1446628343" type="static" programID="0" offset="0">
        <phase duration="31" state="GgGg"/>
        <phase duration="2" state="yyyy"/>
    </tlLogic>
    <tlLogic id="1446628347" type="static" programID="0" offset="0">
        <phase duration="31" state="GG"/>
        <phase duration="4" state="yy"/>
    </tlLogic>
    <tlLogic id="1446628349" type="static" programID="0" offset="0">
        <phase duration="31" state="GgGg"/>
        <phase duration="2" state="yyyy"/>
    </tlLogic>
    <tlLogic id="1446628352" type="static" programID="0" offset="0">
        <phase duration="31" state="GG"/>
        <phase duration="4" state="yy"/>
    </tlLogic>
    <tlLogic id="1447342937" type="static" programID="0" offset="0">
        <phase duration="31" state="GG"/>
        <phase duration="5" state="yy"/>
    </tlLogic>
    <tlLogic id="1447342988" type="static" programID="0" offset="0">
        <phase duration="31" state="GG"/>
        <phase duration="5" state="yy"/>
    </tlLogic>
    <tlLogic id="1447343032" type="static" programID="0" offset="0">
        <phase duration="31" state="G"/>
        <phase duration="7" state="y"/>
    </tlLogic>
    <tlLogic id="1447343036" type="static" programID="0" offset="0">
        <phase duration="31" state="GGrrr"/>
        <phase duration="5" state="yyrrr"/>
        <phase duration="31" state="rrGGG"/>
        <phase duration="5" state="rryyy"/>
    </tlLogic>
    <tlLogic id="1660562615" type="static" programID="0" offset="0">
        <phase duration="31" state="GG"/>
        <phase duration="9" state="yy"/>
    </tlLogic>
    <tlLogic id="1660562622" type="static" programID="0" offset="0">
        <phase duration="31" state="G"/>
        <phase duration="3" state="y"/>
    </tlLogic>
    <tlLogic id="1703462280" type="static" programID="0" offset="0">
        <phase duration="31" state="GgGg"/>
        <phase duration="7" state="yyyy"/>
    </tlLogic>
    <tlLogic id="1719798934" type="static" programID="0" offset="0">
        <phase duration="31" state="GGrG"/>
        <phase duration="3" state="yyry"/>
        <phase duration="31" state="GrGG"/>
        <phase duration="3" state="yryy"/>
    </tlLogic>
    <tlLogic id="1720979220" type="static" programID="0" offset="0">
        <phase duration="31" state="GG"/>
        <phase duration="5" state="yy"/>
    </tlLogic>
    <tlLogic id="1720979221" type="static" programID="0" offset="0">
        <phase duration="31" state="GG"/>
        <phase duration="5" state="yy"/>
    </tlLogic>
    <tlLogic id="1720979222" type="static" programID="0" offset="0">
        <phase duration="31" state="GG"/>
        <phase duration="5" state="yy"/>
    </tlLogic>
    <tlLogic id="1720979225" type="static" programID="0" offset="0">
        <phase duration="31" state="GG"/>
        <phase duration="5" state="yy"/>
    </tlLogic>
    <tlLogic id="1720989013" type="static" programID="0" offset="0">
        <phase duration="31" state="GGgGGg"/>
        <phase duration="5" state="yyyyyy"/>
    </tlLogic>
    <tlLogic id="1806992407" type="static" programID="0" offset="0">
        <phase duration="31" state="GGgrrrrGgg"/>
        <phase duration="5" state="yygrrrrygg"/>
        <phase duration="6" state="rrGrrrrrGG"/>
        <phase duration="5" state="rryrrrrryy"/>
        <phase duration="31" state="rrrGGGGrrr"/>
        <phase duration="5" state="rrryyyyrrr"/>
    </tlLogic>
    <tlLogic id="1943927066" type="static" programID="0" offset="0">
        <phase duration="31" state="G"/>
        <phase duration="7" state="y"/>
    </tlLogic>
    <tlLogic id="1943927067" type="static" programID="0" offset="0">
        <phase duration="31" state="G"/>
        <phase duration="5" state="y"/>
    </tlLogic>
    <tlLogic id="1943927068" type="static" programID="0" offset="0">
        <phase duration="31" state="GG"/>
        <phase duration="5" state="yy"/>
    </tlLogic>
    <tlLogic id="1950660562" type="static" programID="0" offset="0">
        <phase duration="31" state="G"/>
        <phase duration="4" state="y"/>
    </tlLogic>
    <tlLogic id="1950660563" type="static" programID="0" offset="0">
        <phase duration="31" state="G"/>
        <phase duration="3" state="y"/>
    </tlLogic>
    <tlLogic id="1950660572" type="static" programID="0" offset="0">
        <phase duration="31" state="G"/>
        <phase duration="4" state="y"/>
    </tlLogic>
    <tlLogic id="199354110" type="static" programID="0" offset="0">
        <phase duration="31" state="rrrrGGGggrrrrGGGgg"/>
        <phase duration="7" state="rrrryyyggrrrryyygg"/>
        <phase duration="6" state="rrrrrrrGGrrrrrrrGG"/>
        <phase duration="7" state="rrrrrrryyrrrrrrryy"/>
        <phase duration="31" state="GGggrrrrrGGggrrrrr"/>
        <phase duration="7" state="yyggrrrrryyggrrrrr"/>
        <phase duration="6" state="rrGGrrrrrrrGGrrrrr"/>
        <phase duration="7" state="rryyrrrrrrryyrrrrr"/>
    </tlLogic>
    <tlLogic id="199362339" type="static" programID="0" offset="0">
        <phase duration="31" state="GGGgrrrGGgg"/>
        <phase duration="9" state="yyygrrryygg"/>
        <phase duration="6" state="rrrGrrrrrGG"/>
        <phase duration="9" state="rrryrrrrryy"/>
        <phase duration="31" state="rrrrGGGrrrr"/>
        <phase duration="9" state="rrrryyyrrrr"/>
    </tlLogic>
    <tlLogic id="205195741" type="static" programID="0" offset="0">
        <phase duration="31" state="GGggrrrGGGg"/>
        <phase duration="5" state="yyggrrryyyg"/>
        <phase duration="6" state="rrGGrrrrrrG"/>
        <phase duration="5" state="rryyrrrrrry"/>
        <phase duration="31" state="rrrrGGgGrrr"/>
        <phase duration="5" state="rrrryyyyrrr"/>
    </tlLogic>
    <tlLogic id="205203386" type="static" programID="0" offset="0">
        <phase duration="31" state="GGGggrrrrGGGggrrrr"/>
        <phase duration="7" state="yyyggrrrryyyggrrrr"/>
        <phase duration="6" state="rrrGGrrrrrrrGGrrrr"/>
        <phase duration="7" state="rrryyrrrrrrryyrrrr"/>
        <phase duration="31" state="rrrrrGGggrrrrrGGgg"/>
        <phase duration="7" state="rrrrryyggrrrrryygg"/>
        <phase duration="6" state="rrrrrrrGGrrrrrrrGG"/>
        <phase duration="7" state="rrrrrrryyrrrrrrryy"/>
    </tlLogic>
    <tlLogic id="205393058" type="static" programID="0" offset="0">
        <phase duration="31" state="GGGGgGgggggrrrr"/>
        <phase duration="3" state="yyyygygggggrrrr"/>
        <phase duration="6" state="rrrrGrGGGGGrrrr"/>
        <phase duration="3" state="rrrryryyyyyrrrr"/>
        <phase duration="31" state="GrrrrrrrrrrGGGg"/>
        <phase duration="3" state="yrrrrrrrrrryyyy"/>
    </tlLogic>
    <tlLogic id="205394669" type="static" programID="0" offset="0">
        <phase duration="31" state="rrrrGGGggrrrrGGGgg"/>
        <phase duration="3" state="rrrryyyggrrrryyygg"/>
        <phase duration="6" state="rrrrrrrGGrrrrrrrGG"/>
        <phase duration="3" state="rrrrrrryyrrrrrrryy"/>
        <phase duration="31" state="GGggrrrrrGGggrrrrr"/>
        <phase duration="3" state="yyggrrrrryyggrrrrr"/>
        <phase duration="6" state="rrGGrrrrrrrGGrrrrr"/>
        <phase duration="3" state="rryyrrrrrrryyrrrrr"/>
    </tlLogic>
    <tlLogic id="205395233" type="static" programID="0" offset="0">
        <phase duration="31" state="rrrGGggrrrGGGg"/>
        <phase duration="4" state="rrryyggrrryyyg"/>
        <phase duration="6" state="rrrrrGGrrrrrrG"/>
        <phase duration="4" state="rrrrryyrrrrrry"/>
        <phase duration="31" state="GGgrrrrGggrrrr"/>
        <phase duration="4" state="yygrrrryggrrrr"/>
        <phase duration="6" state="rrGrrrrrGGrrrr"/>
        <phase duration="4" state="rryrrrrryyrrrr"/>
    </tlLogic>
    <tlLogic id="205396905" type="static" programID="0" offset="0">
        <phase duration="31" state="GGgGGgrr"/>
        <phase duration="3" state="yyyyyyrr"/>
        <phase duration="31" state="rrrrrrGG"/>
        <phase duration="3" state="rrrrrryy"/>
    </tlLogic>
    <tlLogic id="206142996" type="static" programID="0" offset="0">
        <phase duration="31" state="GGGggrrrrGGGgg"/>
        <phase duration="4" state="yyyggrrrryyygg"/>
        <phase duration="6" state="rrrGGrrrrrrrGG"/>
        <phase duration="4" state="rrryyrrrrrrryy"/>
        <phase duration="31" state="rrrrrGGGgGrrrr"/>
        <phase duration="4" state="rrrrryyyyyrrrr"/>
    </tlLogic>
    <tlLogic id="206143795" type="static" programID="0" offset="0">
        <phase duration="31" state="GGGGGrrr"/>
        <phase duration="4" state="yyyyyrrr"/>
        <phase duration="31" state="GrrrrGGG"/>
        <phase duration="4" state="yrrrryyy"/>
    </tlLogic>
    <tlLogic id="206144531" type="static" programID="0" offset="0">
        <phase duration="31" state="GGggrrrrGGGgrrr"/>
        <phase duration="9" state="yyggrrrryyygrrr"/>
        <phase duration="6" state="rrGGrrrrrrrGrrr"/>
        <phase duration="9" state="rryyrrrrrrryrrr"/>
        <phase duration="31" state="rrrrGGGgrrrrGgg"/>
        <phase duration="9" state="rrrryyygrrrrygg"/>
        <phase duration="6" state="rrrrrrrGrrrrrGG"/>
        <phase duration="9" state="rrrrrrryrrrrryy"/>
    </tlLogic>
    <tlLogic id="206144744" type="static" programID="0" offset="0">
        <phase duration="31" state="GGggrrrGGGg"/>
        <phase duration="5" state="yyggrrryyyg"/>
        <phase duration="6" state="rrGGrrrrrrG"/>
        <phase duration="5" state="rryyrrrrrry"/>
        <phase duration="31" state="rrrrGGgGrrr"/>
        <phase duration="5" state="rrrryyyyrrr"/>
    </tlLogic>
    <tlLogic id="206144746" type="static" programID="0" offset="0">
        <phase duration="31" state="GGGggrrrrGGGggrrrr"/>
        <phase duration="9" state="yyyggrrrryyyggrrrr"/>
        <phase duration="6" state="rrrGGrrrrrrrGGrrrr"/>
        <phase duration="9" state="rrryyrrrrrrryyrrrr"/>
        <phase duration="31" state="rrrrrGGggrrrrrGGgg"/>
        <phase duration="9" state="rrrrryyggrrrrryygg"/>
        <phase duration="6" state="rrrrrrrGGrrrrrrrGG"/>
        <phase duration="9" state="rrrrrrryyrrrrrrryy"/>
    </tlLogic>
    <tlLogic id="206145741" type="static" programID="0" offset="0">
        <phase duration="31" state="GGggrrrrGGggrrrr"/>
        <phase duration="7" state="yyggrrrryyggrrrr"/>
        <phase duration="6" state="rrGGrrrrrrGGrrrr"/>
        <phase duration="7" state="rryyrrrrrryyrrrr"/>
        <phase duration="31" state="rrrrGGggrrrrGGgg"/>
        <phase duration="7" state="rrrryyggrrrryygg"/>
        <phase duration="6" state="rrrrrrGGrrrrrrGG"/>
        <phase duration="7" state="rrrrrryyrrrrrryy"/>
    </tlLogic>
    <tlLogic id="206146253" type="static" programID="0" offset="0">
        <phase duration="31" state="GGgrrrrGgg"/>
        <phase duration="5" state="yygrrrrygg"/>
        <phase duration="6" state="rrGrrrrrGG"/>
        <phase duration="5" state="rryrrrrryy"/>
        <phase duration="31" state="rrrGGGGrrr"/>
        <phase duration="5" state="rrryyyyrrr"/>
    </tlLogic>
    <tlLogic id="206180326" type="static" programID="0" offset="0">
        <phase duration="17" state="GGGrrG"/>
        <phase duration="5" state="yyyrry"/>
        <phase duration="17" state="rrrGGG"/>
        <phase duration="5" state="rrryyy"/>
    </tlLogic>
    <tlLogic id="206347206" type="static" programID="0" offset="0">
        <phase duration="31" state="GggGGGgrrr"/>
        <phase duration="4" state="yggyyygrrr"/>
        <phase duration="6" state="rGGrrrGrrr"/>
        <phase duration="4" state="ryyrrryrrr"/>
        <phase duration="31" state="rrrrrrrGGG"/>
        <phase duration="4" state="rrrrrrryyy"/>
    </tlLogic>
    <tlLogic id="206349085" type="static" programID="0" offset="0">
        <phase duration="31" state="rrrrGGGggrrrrGGGgg"/>
        <phase duration="5" state="rrrryyyggrrrryyygg"/>
        <phase duration="6" state="rrrrrrrGGrrrrrrrGG"/>
        <phase duration="5" state="rrrrrrryyrrrrrrryy"/>
        <phase duration="31" state="GGggrrrrrGGggrrrrr"/>
        <phase duration="5" state="yyggrrrrryyggrrrrr"/>
        <phase duration="6" state="rrGGrrrrrrrGGrrrrr"/>
        <phase duration="5" state="rryyrrrrrrryyrrrrr"/>
    </tlLogic>
    <tlLogic id="206373802" type="static" programID="0" offset="0">
        <phase duration="31" state="rrrrGGGggrrrrGGGgg"/>
        <phase duration="7" state="rrrryyyggrrrryyygg"/>
        <phase duration="6" state="rrrrrrrGGrrrrrrrGG"/>
        <phase duration="7" state="rrrrrrryyrrrrrrryy"/>
        <phase duration="31" state="GGggrrrrrGGggrrrrr"/>
        <phase duration="7" state="yyggrrrrryyggrrrrr"/>
        <phase duration="6" state="rrGGrrrrrrrGGrrrrr"/>
        <phase duration="7" state="rryyrrrrrrryyrrrrr"/>
    </tlLogic>
    <tlLogic id="206374203" type="static" programID="0" offset="0">
        <phase duration="31" state="GggGGgrrrr"/>
        <phase duration="7" state="yggyygrrrr"/>
        <phase duration="6" state="rGGrrGrrrr"/>
        <phase duration="7" state="ryyrryrrrr"/>
        <phase duration="31" state="rrrrrrGGGG"/>
        <phase duration="7" state="rrrrrryyyy"/>
    </tlLogic>
    <tlLogic id="207442030" type="static" programID="0" offset="0">
        <phase duration="31" state="rrrrGggGGGg"/>
        <phase duration="5" state="rrrryggyyyg"/>
        <phase duration="6" state="rrrrrGGrrrG"/>
        <phase duration="5" state="rrrrryyrrry"/>
        <phase duration="31" state="GGGGrrrrrrr"/>
        <phase duration="5" state="yyyyrrrrrrr"/>
    </tlLogic>
    <tlLogic id="207444142" type="static" programID="0" offset="0">
        <phase duration="31" state="rrrrGGGggrrrrGGGgg"/>
        <phase duration="4" state="rrrryyyggrrrryyygg"/>
        <phase duration="6" state="rrrrrrrGGrrrrrrrGG"/>
        <phase duration="4" state="rrrrrrryyrrrrrrryy"/>
        <phase duration="31" state="GGggrrrrrGGggrrrrr"/>
        <phase duration="4" state="yyggrrrrryyggrrrrr"/>
        <phase duration="6" state="rrGGrrrrrrrGGrrrrr"/>
        <phase duration="4" state="rryyrrrrrrryyrrrrr"/>
    </tlLogic>
    <tlLogic id="207465845" type="static" programID="0" offset="0">
        <phase duration="31" state="GggGGgrrrr"/>
        <phase duration="4" state="yggyygrrrr"/>
        <phase duration="6" state="rGGrrGrrrr"/>
        <phase duration="4" state="ryyrryrrrr"/>
        <phase duration="31" state="rrrrrrGGGG"/>
        <phase duration="4" state="rrrrrryyyy"/>
    </tlLogic>
    <tlLogic id="207466526" type="static" programID="0" offset="0">
        <phase duration="31" state="GGGgGGggrrr"/>
        <phase duration="4" state="yyygyyggrrr"/>
        <phase duration="6" state="rrrGrrGGrrr"/>
        <phase duration="4" state="rrryrryyrrr"/>
        <phase duration="31" state="GrrrrrrrGGg"/>
        <phase duration="4" state="yrrrrrrryyy"/>
    </tlLogic>
    <tlLogic id="207470515" type="static" programID="0" offset="0">
        <phase duration="31" state="GgrrrGg"/>
        <phase duration="3" state="ygrrryg"/>
        <phase duration="6" state="rGrrrrG"/>
        <phase duration="3" state="ryrrrry"/>
        <phase duration="31" state="rrGGGrr"/>
        <phase duration="3" state="rryyyrr"/>
    </tlLogic>
    <tlLogic id="207480988" type="static" programID="0" offset="0">
        <phase duration="31" state="GGgrrrrGgg"/>
        <phase duration="7" state="yygrrrrygg"/>
        <phase duration="6" state="rrGrrrrrGG"/>
        <phase duration="7" state="rryrrrrryy"/>
        <phase duration="31" state="rrrGGGGrrr"/>
        <phase duration="7" state="rrryyyyrrr"/>
    </tlLogic>
    <tlLogic id="207481782" type="static" programID="0" offset="0">
        <phase duration="31" state="GGggrrrrGGggrrrr"/>
        <phase duration="3" state="yyggrrrryyggrrrr"/>
        <phase duration="6" state="rrGGrrrrrrGGrrrr"/>
        <phase duration="3" state="rryyrrrrrryyrrrr"/>
        <phase duration="31" state="rrrrGGggrrrrGGgg"/>
        <phase duration="3" state="rrrryyggrrrryygg"/>
        <phase duration="6" state="rrrrrrGGrrrrrrGG"/>
        <phase duration="3" state="rrrrrryyrrrrrryy"/>
    </tlLogic>
    <tlLogic id="207483753" type="static" programID="0" offset="0">
        <phase duration="31" state="GGggrrrrGGggrrrr"/>
        <phase duration="3" state="yyggrrrryyggrrrr"/>
        <phase duration="6" state="rrGGrrrrrrGGrrrr"/>
        <phase duration="3" state="rryyrrrrrryyrrrr"/>
        <phase duration="31" state="rrrrGGggrrrrGGgg"/>
        <phase duration="3" state="rrrryyggrrrryygg"/>
        <phase duration="6" state="rrrrrrGGrrrrrrGG"/>
        <phase duration="3" state="rrrrrryyrrrrrryy"/>
    </tlLogic>
    <tlLogic id="207502127" type="static" programID="0" offset="0">
        <phase duration="31" state="rrrrGGggrrrrGGgg"/>
        <phase duration="7" state="rrrryyggrrrryygg"/>
        <phase duration="6" state="rrrrrrGGrrrrrrGG"/>
        <phase duration="7" state="rrrrrryyrrrrrryy"/>
        <phase duration="31" state="GGggrrrrGGggrrrr"/>
        <phase duration="7" state="yyggrrrryyggrrrr"/>
        <phase duration="6" state="rrGGrrrrrrGGrrrr"/>
        <phase duration="7" state="rryyrrrrrryyrrrr"/>
    </tlLogic>
    <tlLogic id="207511788" type="static" programID="0" offset="0">
        <phase duration="31" state="GGGgGGggrrr"/>
        <phase duration="9" state="yyygyyggrrr"/>
        <phase duration="6" state="rrrGrrGGrrr"/>
        <phase duration="9" state="rrryrryyrrr"/>
        <phase duration="31" state="GrrrrrrrGGg"/>
        <phase duration="9" state="yrrrrrrryyy"/>
    </tlLogic>
    <tlLogic id="207522017" type="static" programID="0" offset="0">
        <phase duration="31" state="rrrrGGGggrrrrGGGgg"/>
        <phase duration="9" state="rrrryyyggrrrryyygg"/>
        <phase duration="6" state="rrrrrrrGGrrrrrrrGG"/>
        <phase duration="9" state="rrrrrrryyrrrrrrryy"/>
        <phase duration="31" state="GGggrrrrrGGggrrrrr"/>
        <phase duration="9" state="yyggrrrrryyggrrrrr"/>
        <phase duration="6" state="rrGGrrrrrrrGGrrrrr"/>
        <phase duration="9" state="rryyrrrrrrryyrrrrr"/>
    </tlLogic>
    <tlLogic id="221391888" type="static" programID="0" offset="0">
        <phase duration="31" state="GGGgGGgg"/>
        <phase duration="4" state="yyygyygg"/>
        <phase duration="6" state="rrrGrrGG"/>
        <phase duration="4" state="rrryrryy"/>
    </tlLogic>
    <tlLogic id="240789744" type="static" programID="0" offset="0">
        <phase duration="31" state="rrrGggGGg"/>
        <phase duration="7" state="rrryggyyg"/>
        <phase duration="6" state="rrrrGGrrG"/>
        <phase duration="7" state="rrrryyrry"/>
        <phase duration="31" state="GGGrrrrrr"/>
        <phase duration="7" state="yyyrrrrrr"/>
    </tlLogic>
    <tlLogic id="240975301" type="static" programID="0" offset="0">
        <phase duration="31" state="GGggrrrrGGggrrrr"/>
        <phase duration="3" state="yyggrrrryyggrrrr"/>
        <phase duration="6" state="rrGGrrrrrrGGrrrr"/>
        <phase duration="3" state="rryyrrrrrryyrrrr"/>
        <phase duration="31" state="rrrrGGggrrrrGGgg"/>
        <phase duration="3" state="rrrryyggrrrryygg"/>
        <phase duration="6" state="rrrrrrGGrrrrrrGG"/>
        <phase duration="3" state="rrrrrryyrrrrrryy"/>
    </tlLogic>
    <tlLogic id="243532398" type="static" programID="0" offset="0">
        <phase duration="31" state="rrrrGGGggrrrrGGGgg"/>
        <phase duration="5" state="rrrryyyggrrrryyygg"/>
        <phase duration="6" state="rrrrrrrGGrrrrrrrGG"/>
        <phase duration="5" state="rrrrrrryyrrrrrrryy"/>
        <phase duration="31" state="GGggrrrrrGGggrrrrr"/>
        <phase duration="5" state="yyggrrrrryyggrrrrr"/>
        <phase duration="6" state="rrGGrrrrrrrGGrrrrr"/>
        <phase duration="5" state="rryyrrrrrrryyrrrrr"/>
    </tlLogic>
    <tlLogic id="245005433" type="static" programID="0" offset="0">
        <phase duration="31" state="GGrrr"/>
        <phase duration="4" state="yyrrr"/>
        <phase duration="31" state="rrGGG"/>
        <phase duration="4" state="rryyy"/>
    </tlLogic>
    <tlLogic id="245012525" type="static" programID="0" offset="0">
        <phase duration="31" state="GGGgrrrrrrrGggg"/>
        <phase duration="3" state="yyygrrrrrrryggg"/>
        <phase duration="6" state="rrrGrrrrrrrrGGG"/>
        <phase duration="3" state="rrryrrrrrrrryyy"/>
        <phase duration="31" state="rrrrGGGGGGGrrrr"/>
        <phase duration="3" state="rrrryyyyyyyrrrr"/>
    </tlLogic>
    <tlLogic id="245030103" type="static" programID="0" offset="0">
        <phase duration="31" state="GGggrrrrGGggrrrr"/>
        <phase duration="3" state="yyggrrrryyggrrrr"/>
        <phase duration="6" state="rrGGrrrrrrGGrrrr"/>
        <phase duration="3" state="rryyrrrrrryyrrrr"/>
        <phase duration="31" state="rrrrGGggrrrrGGgg"/>
        <phase duration="3" state="rrrryyggrrrryygg"/>
        <phase duration="6" state="rrrrrrGGrrrrrrGG"/>
        <phase duration="3" state="rrrrrryyrrrrrryy"/>
    </tlLogic>
    <tlLogic id="245033011" type="static" programID="0" offset="0">
        <phase duration="31" state="GggrrrGGGg"/>
        <phase duration="4" state="yggrrryyyg"/>
        <phase duration="6" state="rGGrrrrrrG"/>
        <phase duration="4" state="ryyrrrrrry"/>
        <phase duration="31" state="rrrGGgGrrr"/>
        <phase duration="4" state="rrryyyyrrr"/>
    </tlLogic>