<?xml version="1.0" encoding="UTF-8"?>

<!-- generated on 07/07/15 13:21:49 by SUMO netconvert Version 0.23.0
<?xml version="1.0" encoding="UTF-8"?>

<configuration xmlns:xsi="http://www.w3.org/2001/XMLSchema-instance" xsi:noNamespaceSchemaLocation="http://sumo.dlr.de/xsd/netconvertConfiguration.xsd">

    <input>
        <sumo-net-file value="Y:\oulu\oulu.net.xml"/>
    </input>

    <output>
        <plain-output-prefix value="Y:\oulu\plain_network\oulu"/>
    </output>

    <processing>
        <no-turnarounds value="true"/>
        <offset.disable-normalization value="true"/>
    </processing>

</configuration>
-->

<nodes version="0.13" xmlns:xsi="http://www.w3.org/2001/XMLSchema-instance" xsi:noNamespaceSchemaLocation="http://sumo.dlr.de/xsd/nodes_file.xsd">
    <location netOffset="-414982.40,-7194168.66" convBoundary="0.00,0.00,30533.75,26618.49" origBoundary="25.196334,64.864240,25.844493,65.118303" projParameter="+proj=utm +zone=35 +ellps=WGS84 +datum=WGS84 +units=m +no_defs"/>

    <node id="1000557566" x="13123.89" y="16782.94" type="priority"/>
    <node id="1000557568" x="13112.23" y="16748.12" type="priority"/>
    <node id="1000557570" x="13118.69" y="16786.26" type="priority"/>
    <node id="1000557571" x="13100.38" y="16729.99" type="priority"/>
    <node id="1000557587" x="13200.66" y="16730.87" type="right_before_left"/>
    <node id="1004042977" x="10896.32" y="7726.74" type="priority"/>
    <node id="1013698704" x="13649.68" y="17062.00" type="unregulated"/>
    <node id="1013698719" x="13625.15" y="17067.13" type="priority"/>
    <node id="1013698731" x="13630.24" y="17075.43" type="priority"/>
    <node id="1013698749" x="13704.79" y="16977.37" type="priority"/>
    <node id="1013698798" x="13705.71" y="17180.08" type="right_before_left"/>
    <node id="1013698807" x="13695.31" y="16983.49" type="right_before_left"/>
    <node id="1013698858" x="13825.55" y="17256.30" type="priority"/>
    <node id="1013698860" x="13848.15" y="17264.15" type="priority"/>
    <node id="1013698870" x="13971.10" y="17300.79" type="priority"/>
    <node id="1013765024" x="15133.59" y="18065.77" type="priority"/>
    <node id="1013765055" x="15081.32" y="18029.65" type="right_before_left"/>
    <node id="1013798381" x="13666.48" y="17435.79" type="priority"/>
    <node id="1013798387" x="13875.24" y="17771.79" type="right_before_left"/>
    <node id="1013798439" x="13859.15" y="17807.52" type="priority"/>
    <node id="1013798443" x="13649.67" y="17459.57" type="priority"/>
    <node id="1013799662" x="10355.99" y="18329.27" type="priority"/>
    <node id="1013799740" x="10359.47" y="18305.16" type="priority"/>
    <node id="1013799769" x="10367.83" y="18237.78" type="priority"/>
    <node id="1013807090" x="10353.17" y="18381.22" type="priority"/>
    <node id="1013810317" x="15196.76" y="17119.12" type="priority"/>
    <node id="1013810368" x="15467.12" y="16813.32" type="priority"/>
    <node id="1013810407" x="15207.74" y="17131.91" type="unregulated"/>
    <node id="1013835544" x="10350.36" y="18365.03" type="right_before_left"/>
    <node id="1013835562" x="10294.22" y="18421.39" type="right_before_left"/>
    <node id="1013841279" x="12935.91" y="16518.81" type="priority"/>
    <node id="1013841296" x="13479.19" y="17202.23" type="priority"/>
    <node id="1013841298" x="13505.90" y="17212.91" type="priority"/>
    <node id="1013841369" x="13459.98" y="17188.46" type="priority"/>
    <node id="1013841392" x="13510.40" y="17209.96" type="priority"/>
    <node id="1013941007" x="11580.42" y="18489.26" type="priority"/>
    <node id="1013941023" x="11574.61" y="18418.47" type="priority"/>
    <node id="1013941033" x="11593.06" y="18470.29" type="priority"/>
    <node id="1014009559" x="11521.90" y="18556.23" type="unregulated"/>
    <node id="1014009564" x="11541.26" y="18549.35" type="priority"/>
    <node id="1014009568" x="11624.68" y="18536.79" type="unregulated"/>
    <node id="1014009572" x="11572.43" y="18542.22" type="right_before_left"/>
    <node id="1014009573" x="11536.80" y="18522.29" type="priority"/>
    <node id="1014009574" x="11582.70" y="18577.20" type="unregulated"/>
    <node id="1014212736" x="12691.87" y="18153.10" type="right_before_left"/>
    <node id="1014212739" x="13843.96" y="17907.34" type="priority"/>
    <node id="1014212746" x="13275.70" y="18010.93" type="priority"/>
    <node id="1014212748" x="13928.24" y="18014.77" type="priority"/>
    <node id="1014212751" x="13802.60" y="18067.77" type="priority"/>
    <node id="1014212753" x="13864.16" y="18021.18" type="right_before_left"/>
    <node id="1014212756" x="13737.55" y="18107.23" type="priority"/>
    <node id="1014212761" x="13892.38" y="17905.15" type="right_before_left"/>
    <node id="1014212764" x="13771.34" y="18124.20" type="unregulated"/>
    <node id="1014212767" x="13803.72" y="18088.31" type="priority"/>
    <node id="1014212768" x="13891.18" y="17865.53" type="priority"/>
    <node id="1014212769" x="13869.90" y="18086.11" type="priority"/>
    <node id="1014212772" x="12087.18" y="18441.71" type="right_before_left"/>
    <node id="1014212776" x="12090.64" y="18475.94" type="priority"/>
    <node id="1014212778" x="13793.96" y="18048.49" type="priority"/>
    <node id="1014212779" x="13927.00" y="17978.56" type="priority"/>
    <node id="1014212781" x="13612.23" y="18148.35" type="right_before_left"/>
    <node id="1014212788" x="12280.79" y="18233.91" type="priority"/>
    <node id="1014212790" x="13672.35" y="18181.61" type="priority"/>
    <node id="1014212791" x="13673.70" y="18164.15" type="priority"/>
    <node id="1014212792" x="13874.51" y="17981.24" type="right_before_left"/>
    <node id="1014212797" x="13570.89" y="18167.88" type="priority"/>
    <node id="1014212798" x="13604.56" y="18240.95" type="priority"/>
    <node id="1014212799" x="13794.13" y="18105.09" type="right_before_left"/>
    <node id="1014212800" x="13876.53" y="17998.85" type="right_before_left"/>
    <node id="1014212803" x="13736.45" y="18012.02" type="priority"/>
    <node id="1014212804" x="13871.09" y="17906.07" type="priority"/>
    <node id="1014212807" x="12952.89" y="18059.53" type="right_before_left"/>
    <node id="1014212809" x="13927.61" y="17996.47" type="right_before_left"/>
    <node id="1014212814" x="13878.48" y="18017.23" type="right_before_left"/>
    <node id="1014212816" x="13567.81" y="18095.05" type="right_before_left"/>
    <node id="1014212818" x="13606.10" y="18112.49" type="priority"/>
    <node id="1014212820" x="13605.79" y="18094.33" type="priority"/>
    <node id="1014212822" x="13538.52" y="18095.62" type="priority"/>
    <node id="1014212823" x="13883.90" y="18063.59" type="right_before_left"/>
    <node id="1014212824" x="13644.02" y="18128.51" type="priority"/>
    <node id="1014212828" x="13581.39" y="18131.01" type="priority"/>
    <node id="1014212829" x="13644.60" y="18147.04" type="priority"/>
    <node id="1014212830" x="12999.78" y="18042.16" type="priority"/>
    <node id="1014212842" x="13588.40" y="18149.28" type="priority"/>
    <node id="1014212853" x="13611.44" y="18129.79" type="right_before_left"/>
    <node id="1014212854" x="13613.00" y="18166.35" type="right_before_left"/>
    <node id="1014212855" x="13665.93" y="17748.47" type="priority"/>
    <node id="1014214840" x="14139.18" y="17817.54" type="priority"/>
    <node id="1014218083" x="14041.59" y="17957.68" type="priority"/>
    <node id="1014218089" x="13927.30" y="18204.38" type="right_before_left"/>
    <node id="1014291860" x="13612.65" y="19876.16" type="priority"/>
    <node id="1014291874" x="13845.24" y="19921.11" type="priority"/>
    <node id="1014291876" x="13608.35" y="20084.49" type="priority"/>
    <node id="1014291882" x="13725.58" y="20014.28" type="priority"/>
    <node id="1014291894" x="13610.63" y="20074.07" type="priority"/>
    <node id="1014291897" x="13834.49" y="19928.67" type="priority"/>
    <node id="1014291905" x="13882.53" y="19970.22" type="right_before_left"/>
    <node id="1014291906" x="13801.84" y="20040.79" type="priority"/>
    <node id="1014299870" x="13527.73" y="20487.33" type="right_before_left"/>
    <node id="1014299875" x="14295.03" y="20244.04" type="priority"/>
    <node id="1014299888" x="13438.78" y="19911.47" type="priority"/>
    <node id="1014299892" x="13482.39" y="19964.10" type="priority"/>
    <node id="1014299893" x="13443.04" y="19979.86" type="priority"/>
    <node id="1014299908" x="13764.17" y="20089.11" type="priority"/>
    <node id="1014299957" x="13526.26" y="20044.42" type="priority"/>
    <node id="1014299965" x="14343.85" y="20339.70" type="priority"/>
    <node id="1014299970" x="13464.36" y="19955.32" type="priority"/>
    <node id="1014299974" x="13535.28" y="20527.77" type="priority"/>
    <node id="1014299991" x="13450.47" y="19975.86" type="priority"/>
    <node id="1014299994" x="13444.67" y="19915.83" type="priority"/>
    <node id="1014300002" x="13578.61" y="20428.65" type="priority"/>
    <node id="1014300011" x="13462.90" y="19971.28" type="right_before_left"/>
    <node id="1014348180" x="12957.71" y="21678.61" type="priority"/>
    <node id="1014348189" x="12957.19" y="21655.90" type="priority"/>
    <node id="1014348211" x="12958.63" y="21717.81" type="right_before_left"/>
    <node id="1014348227" x="12992.06" y="21593.39" type="unregulated"/>
    <node id="1014348298" x="12296.07" y="21341.93" type="priority"/>
    <node id="1014348310" x="13021.87" y="21836.94" type="priority"/>
    <node id="1014348337" x="12451.28" y="21637.25" type="priority"/>
    <node id="1014348340" x="12280.63" y="21361.78" type="priority"/>
    <node id="1014348394" x="13022.78" y="21856.07" type="priority"/>
    <node id="1014348396" x="12994.99" y="21846.31" type="priority"/>
    <node id="1014348400" x="13017.92" y="21857.44" type="priority"/>
    <node id="1014380406" x="13209.64" y="21756.92" type="priority"/>
    <node id="1014380413" x="13333.61" y="21712.46" type="right_before_left"/>
    <node id="1014380416" x="13152.08" y="21634.61" type="right_before_left"/>
    <node id="1014380422" x="13201.16" y="21757.26" type="priority"/>
    <node id="1014380447" x="13219.32" y="21878.62" type="priority"/>
    <node id="1014380454" x="13218.13" y="21632.30" type="right_before_left"/>
    <node id="1014389681" x="12788.40" y="21916.52" type="right_before_left"/>
    <node id="1014389710" x="12729.27" y="21902.22" type="priority"/>
    <node id="1014389755" x="12799.33" y="21278.50" type="priority"/>
    <node id="1014389758" x="13002.81" y="21162.02" type="right_before_left"/>
    <node id="1014389762" x="12803.13" y="21136.47" type="right_before_left"/>
    <node id="1014389769" x="13005.06" y="21259.38" type="right_before_left"/>
    <node id="1014389797" x="12729.52" y="21918.03" type="right_before_left"/>
    <node id="1014395168" x="15211.51" y="17110.23" type="priority"/>
    <node id="1014395171" x="15226.11" y="17055.29" type="priority"/>
    <node id="1014395244" x="15220.17" y="17060.47" type="priority"/>
    <node id="1014395305" x="15204.28" y="17112.69" type="priority"/>
    <node id="1014398452" x="15281.96" y="17074.15" type="priority"/>
    <node id="1014403122" x="14950.94" y="16029.82" type="right_before_left"/>
    <node id="1014403131" x="14741.36" y="16164.47" type="priority"/>
    <node id="1014403133" x="14938.73" y="16020.39" type="right_before_left"/>
    <node id="1014403134" x="14943.48" y="16023.69" type="priority"/>
    <node id="1014403143" x="14812.05" y="15596.59" type="priority"/>
    <node id="1014408384" x="12475.03" y="19229.51" type="right_before_left"/>
    <node id="1014408405" x="12481.05" y="19225.45" type="unregulated"/>
    <node id="1014408414" x="12474.85" y="19225.32" type="right_before_left"/>
    <node id="1014408483" x="12474.82" y="19226.76" type="right_before_left"/>
    <node id="1014408520" x="12478.35" y="19225.39" type="priority"/>
    <node id="1014412616" x="12500.67" y="19226.60" type="priority"/>
    <node id="1014412618" x="12500.26" y="19239.07" type="priority"/>
    <node id="1014432510" x="12026.83" y="19496.67" type="priority"/>
    <node id="1014432525" x="12215.48" y="19407.73" type="right_before_left"/>
    <node id="1014432533" x="12158.97" y="19578.71" type="priority"/>
    <node id="1014432541" x="12491.75" y="19415.56" type="priority"/>
    <node id="1014432556" x="12180.48" y="19619.14" type="priority"/>
    <node id="1014432568" x="12142.13" y="19585.35" type="right_before_left"/>
    <node id="1014435474" x="15150.90" y="16852.11" type="priority"/>
    <node id="1014435555" x="15250.08" y="15715.90" type="priority"/>
    <node id="1014435652" x="14744.02" y="16336.69" type="priority"/>
    <node id="1014435701" x="14977.42" y="16515.48" type="priority"/>
    <node id="1014435891" x="15305.11" y="16680.19" type="priority"/>
    <node id="1014436106" x="16023.36" y="16709.88" type="priority"/>
    <node id="1014436117" x="15246.81" y="15723.06" type="priority"/>
    <node id="1014436283" x="15237.97" y="16472.41" type="priority"/>
    <node id="1014436409" x="14955.99" y="16524.82" type="right_before_left"/>
    <node id="1014436428" x="15270.51" y="16119.59" type="right_before_left"/>
    <node id="1014449294" x="14477.02" y="16996.10" type="right_before_left"/>
    <node id="1014449299" x="14005.17" y="16962.52" type="priority"/>
    <node id="1014449301" x="14211.56" y="16924.69" type="priority"/>
    <node id="1014449303" x="13896.07" y="16656.61" type="priority"/>
    <node id="1014449304" x="13884.92" y="16657.59" type="priority"/>
    <node id="1014449305" x="13767.93" y="16576.04" type="right_before_left"/>
    <node id="1014449306" x="13726.09" y="16582.11" type="unregulated"/>
    <node id="1014449308" x="13740.18" y="16575.41" type="priority"/>
    <node id="1014449310" x="13821.14" y="16568.77" type="right_before_left"/>
    <node id="1014449311" x="13913.96" y="16579.38" type="right_before_left"/>
    <node id="1014449312" x="13868.66" y="16568.08" type="right_before_left"/>
    <node id="1014449314" x="13930.17" y="16573.09" type="right_before_left"/>
    <node id="1014449315" x="14181.43" y="16667.22" type="right_before_left"/>
    <node id="1014449318" x="14026.47" y="16596.39" type="right_before_left"/>
    <node id="1014449319" x="13932.38" y="16514.01" type="unregulated"/>
    <node id="1014449321" x="13967.34" y="16544.84" type="right_before_left"/>
    <node id="1014452813" x="14061.66" y="17120.48" type="priority"/>
    <node id="1014491821" x="13170.83" y="16850.62" type="right_before_left"/>
    <node id="1014491824" x="13226.05" y="16789.81" type="right_before_left"/>
    <node id="1014491849" x="13154.38" y="16776.78" type="priority"/>
    <node id="1014491876" x="13238.07" y="16788.74" type="priority"/>
    <node id="1014491881" x="13131.66" y="16709.20" type="priority"/>
    <node id="1014491894" x="13164.06" y="16743.05" type="priority"/>
    <node id="1014491897" x="13161.70" y="16840.45" type="priority"/>
    <node id="1014491898" x="13173.89" y="16764.60" type="unregulated"/>
    <node id="1014491911" x="13206.38" y="16721.87" type="priority"/>
    <node id="1014491943" x="13211.34" y="16718.72" type="right_before_left"/>
    <node id="1014491945" x="13172.24" y="16830.20" type="priority"/>
    <node id="1014491966" x="13207.22" y="16740.47" type="priority"/>
    <node id="1014491986" x="13217.34" y="16776.52" type="right_before_left"/>
    <node id="1014492009" x="13140.15" y="16703.51" type="priority"/>
    <node id="1014492016" x="13222.41" y="16730.74" type="priority"/>
    <node id="1014492040" x="13198.15" y="16727.14" type="priority"/>
    <node id="1014492051" x="13211.69" y="16779.90" type="priority"/>
    <node id="1014492063" x="13190.70" y="16751.87" type="priority"/>
    <node id="1014492096" x="13136.36" y="16698.05" type="priority"/>
    <node id="1014492122" x="13127.95" y="16703.78" type="priority"/>
    <node id="1014492152" x="13219.11" y="16771.58" type="right_before_left"/>
    <node id="1014492176" x="13155.39" y="16810.32" type="priority"/>
    <node id="1014492205" x="13229.03" y="16766.41" type="priority"/>
    <node id="1014492232" x="13130.90" y="16701.77" type="priority"/>
    <node id="1014492247" x="13173.21" y="16831.42" type="unregulated"/>
    <node id="1014492272" x="13173.26" y="16763.81" type="priority"/>
    <node id="1014492286" x="13173.81" y="16832.51" type="priority"/>
    <node id="1014492320" x="13211.00" y="16794.85" type="priority"/>
    <node id="1014492333" x="13228.98" y="16795.34" type="right_before_left"/>
    <node id="1014492337" x="13134.56" y="16707.25" type="priority"/>
    <node id="1014492358" x="13214.05" y="16778.34" type="priority"/>
    <node id="1014492360" x="13146.13" y="16724.65" type="priority"/>
    <node id="1014492393" x="13154.20" y="16803.68" type="unregulated"/>
    <node id="1014492414" x="13150.95" y="16806.02" type="right_before_left"/>
    <node id="1014492438" x="13139.25" y="16720.27" type="priority"/>
    <node id="1014550180" x="12857.78" y="17052.67" type="priority"/>
    <node id="1014550185" x="12813.69" y="17049.70" type="right_before_left"/>
    <node id="1014550209" x="12773.02" y="17048.74" type="priority"/>
    <node id="1014550245" x="12897.65" y="17786.12" type="right_before_left"/>
    <node id="1014550352" x="10584.26" y="20508.77" type="priority"/>
    <node id="1014550371" x="10633.93" y="20291.56" type="right_before_left"/>
    <node id="1014550384" x="10512.17" y="20073.13" type="right_before_left"/>
    <node id="1014550397" x="12741.76" y="17031.12" type="right_before_left"/>
    <node id="1014550415" x="11252.95" y="20157.07" type="priority"/>
    <node id="1014550416" x="11299.95" y="20138.49" type="priority"/>
    <node id="1014550419" x="11273.81" y="20136.81" type="right_before_left"/>
    <node id="1014550421" x="11261.72" y="20128.69" type="priority"/>
    <node id="1014550423" x="11295.84" y="20184.92" type="priority"/>
    <node id="1014550428" x="11262.11" y="20125.57" type="priority"/>
    <node id="1014550462" x="12692.09" y="17063.88" type="priority"/>
    <node id="1014550472" x="12724.63" y="17073.90" type="priority"/>
    <node id="1014550475" x="12806.35" y="17100.27" type="right_before_left"/>
    <node id="1014550480" x="11157.64" y="20347.06" type="priority"/>
    <node id="1014550489" x="11292.92" y="20219.56" type="priority"/>
    <node id="1014550520" x="11140.02" y="20412.47" type="priority"/>
    <node id="1014550535" x="11190.92" y="20082.67" type="priority"/>
    <node id="1014566436" x="14113.35" y="21749.33" type="priority"/>
    <node id="1014572715" x="15291.52" y="15503.03" type="right_before_left"/>
    <node id="1014572767" x="15323.28" y="15490.46" type="priority"/>
    <node id="1014572768" x="15328.19" y="15525.82" type="priority"/>
    <node id="1014572779" x="15267.89" y="15518.29" type="priority"/>
    <node id="1014572846" x="15172.69" y="15696.89" type="right_before_left"/>
    <node id="1014572997" x="14892.90" y="15835.68" type="right_before_left"/>
    <node id="1014573147" x="15353.75" y="15530.27" type="priority"/>
    <node id="1014573156" x="15267.52" y="15533.00" type="priority"/>
    <node id="1014573176" x="14929.20" y="15827.88" type="unregulated"/>
    <node id="1014595243" x="12416.48" y="16638.76" type="priority"/>
    <node id="1014616359" x="15290.65" y="16118.77" type="priority"/>
    <node id="1014616483" x="15277.46" y="16119.31" type="priority"/>
    <node id="1014616542" x="15294.67" y="16118.60" type="right_before_left"/>
    <node id="1014791127" x="11027.05" y="17200.59" type="priority"/>
    <node id="1014791128" x="11088.00" y="17254.62" type="priority"/>
    <node id="1014791150" x="11078.23" y="17182.77" type="priority"/>
    <node id="1014791170" x="11017.30" y="17203.72" type="priority"/>
    <node id="1014799498" x="11351.03" y="17010.16" type="priority"/>
    <node id="1014799500" x="11267.09" y="17076.62" type="priority"/>
    <node id="1014799539" x="11284.05" y="16987.17" type="priority"/>
    <node id="1014799567" x="11332.66" y="16969.95" type="priority"/>
    <node id="1014863015" x="12810.10" y="19035.40" type="priority"/>
    <node id="1014863016" x="12496.15" y="19328.20" type="right_before_left"/>
    <node id="1014863066" x="12793.55" y="18903.72" type="priority"/>
    <node id="1014863127" x="12535.26" y="19350.85" type="priority"/>
    <node id="1014863140" x="12625.08" y="18987.86" type="priority"/>
    <node id="1014863181" x="12606.62" y="19024.31" type="priority"/>
    <node id="1014863288" x="12494.53" y="19359.04" type="right_before_left"/>
    <node id="1014881012" x="10561.74" y="17452.32" type="priority"/>
    <node id="1014881239" x="10346.44" y="17679.08" type="priority"/>
    <node id="1014881419" x="10468.83" y="17697.85" type="priority"/>
    <node id="1014881436" x="10633.69" y="17504.33" type="priority"/>
    <node id="1014881492" x="10596.85" y="17525.04" type="priority"/>
    <node id="1014881551" x="10478.03" y="17695.51" type="priority"/>
    <node id="1014893951" x="16816.70" y="19465.14" type="right_before_left"/>
    <node id="1014893954" x="16941.06" y="19414.59" type="priority"/>
    <node id="1014893974" x="16827.31" y="19450.36" type="right_before_left"/>
    <node id="1014893980" x="16892.44" y="19474.84" type="right_before_left"/>
    <node id="1014893983" x="16872.48" y="19503.52" type="right_before_left"/>
    <node id="1014893992" x="16897.18" y="19499.91" type="right_before_left"/>
    <node id="1014893994" x="16876.52" y="19506.29" type="priority"/>
    <node id="1014894001" x="16908.12" y="19453.15" type="right_before_left"/>
    <node id="1014894003" x="16959.52" y="19523.00" type="priority"/>
    <node id="1014894004" x="16940.32" y="19550.18" type="right_before_left"/>
    <node id="1014894007" x="16866.81" y="19404.37" type="right_before_left"/>
    <node id="1014894010" x="16887.55" y="19513.88" type="right_before_left"/>
    <node id="1014894013" x="16950.31" y="19402.67" type="right_before_left"/>
    <node id="1014894041" x="16852.65" y="19415.04" type="right_before_left"/>
    <node id="1014894044" x="16882.16" y="19489.07" type="right_before_left"/>
    <node id="1014894051" x="16837.71" y="19435.85" type="right_before_left"/>
    <node id="1014894055" x="16861.64" y="19526.27" type="priority"/>
    <node id="1014894058" x="16931.28" y="19563.06" type="priority"/>
    <node id="1014894059" x="16950.18" y="19536.13" type="right_before_left"/>
    <node id="1014933823" x="10881.58" y="17891.51" type="priority"/>
    <node id="1014940065" x="11081.94" y="17749.07" type="priority"/>
    <node id="1014940069" x="11132.32" y="17661.32" type="priority"/>
    <node id="1014940072" x="11054.24" y="17647.59" type="priority"/>
    <node id="1014940084" x="10532.44" y="17676.67" type="priority"/>
    <node id="1014940092" x="11022.88" y="17742.51" type="priority"/>
    <node id="1014940093" x="10487.24" y="17737.49" type="priority"/>
    <node id="1014940103" x="10534.48" y="17705.39" type="priority"/>
    <node id="1014940109" x="11019.61" y="17777.89" type="priority"/>
    <node id="1014940112" x="11061.85" y="17670.10" type="priority"/>
    <node id="1014940120" x="10469.42" y="17738.76" type="priority"/>
    <node id="1014940122" x="11138.98" y="17616.49" type="priority"/>
    <node id="1014940127" x="10557.19" y="17786.00" type="priority"/>
    <node id="1014940130" x="11143.48" y="17751.26" type="priority"/>
    <node id="1014940143" x="11115.99" y="17624.92" type="priority"/>
    <node id="1014940144" x="11095.34" y="17802.91" type="priority"/>
    <node id="1014940146" x="11126.80" y="17620.96" type="priority"/>
    <node id="1014940152" x="11164.81" y="17822.85" type="priority"/>
    <node id="1014957346" x="11029.10" y="17490.20" type="priority"/>
    <node id="1014957360" x="10825.74" y="17689.61" type="priority"/>
    <node id="1014957379" x="10941.40" y="17522.78" type="priority"/>
    <node id="1014957387" x="11051.24" y="17482.09" type="priority"/>
    <node id="1014957401" x="11021.80" y="17492.88" type="priority"/>
    <node id="1014957426" x="10989.99" y="17372.61" type="priority"/>
    <node id="1014957468" x="10967.33" y="17513.13" type="priority"/>
    <node id="1014957482" x="10963.68" y="17581.77" type="right_before_left"/>
    <node id="1014957501" x="11065.07" y="17519.69" type="priority"/>
    <node id="1014957567" x="10885.56" y="17676.01" type="priority"/>
    <node id="1014957586" x="10931.77" y="17444.66" type="priority"/>
    <node id="1014957618" x="11048.20" y="17559.06" type="priority"/>
    <node id="1014957625" x="10788.98" y="17678.25" type="priority"/>
    <node id="1014957636" x="10797.54" y="17651.63" type="priority"/>
    <node id="1014957689" x="10981.49" y="17583.79" type="priority"/>
    <node id="1014981112" x="11106.58" y="17368.47" type="priority"/>
    <node id="1014981156" x="11363.04" y="17178.72" type="priority"/>
    <node id="1014981213" x="11089.91" y="17374.90" type="priority"/>
    <node id="1014981245" x="11380.55" y="17219.58" type="priority"/>
    <node id="1014981273" x="11279.62" y="17121.12" type="priority"/>
    <node id="1014981303" x="11267.89" y="17405.20" type="priority"/>
    <node id="1014981341" x="11373.29" y="17093.62" type="priority"/>
    <node id="1014981391" x="11355.08" y="17374.65" type="priority"/>
    <node id="1014981394" x="11079.87" y="17379.05" type="priority"/>
    <node id="1014981395" x="14271.36" y="21847.16" type="priority"/>
    <node id="1014981401" x="11272.70" y="17264.14" type="priority"/>
    <node id="1014981435" x="11293.82" y="17276.32" type="priority"/>
    <node id="1014981440" x="11255.22" y="17375.07" type="priority"/>
    <node id="1014981462" x="14586.98" y="21695.95" type="unregulated"/>
    <node id="1014981511" x="14631.52" y="21774.58" type="priority"/>
    <node id="1014981536" x="14589.96" y="21866.82" type="priority"/>
    <node id="1015008363" x="11229.02" y="17562.67" type="priority"/>
    <node id="1015008411" x="11371.72" y="17742.11" type="priority"/>
    <node id="1015008488" x="11281.84" y="17558.71" type="priority"/>
    <node id="1015008548" x="11197.39" y="17589.80" type="priority"/>
    <node id="1015008558" x="11206.12" y="17612.59" type="priority"/>
    <node id="1015008572" x="11275.43" y="17543.93" type="priority"/>
    <node id="1015008616" x="11233.25" y="17576.33" type="priority"/>
    <node id="1015008620" x="11283.98" y="17566.92" type="priority"/>
    <node id="1015008638" x="11256.10" y="17870.91" type="priority"/>
    <node id="1015079570" x="10993.13" y="17670.04" type="priority"/>
    <node id="1015079576" x="10912.42" y="17709.62" type="priority"/>
    <node id="1015079577" x="11207.50" y="17733.31" type="priority"/>
    <node id="1015485573" x="14229.12" y="22963.50" type="right_before_left"/>
    <node id="1015485612" x="14233.13" y="22975.08" type="priority"/>
    <node id="1015576514" x="14778.85" y="23170.37" type="priority"/>
    <node id="1015576518" x="14868.14" y="23270.44" type="priority"/>
    <node id="1015576682" x="14811.93" y="23171.77" type="priority"/>
    <node id="1015576849" x="14810.29" y="23168.78" type="priority"/>
    <node id="1015588274" x="12564.90" y="21899.44" type="priority"/>
    <node id="1015588315" x="12397.59" y="21820.61" type="priority"/>
    <node id="1015588326" x="12484.51" y="21867.41" type="priority"/>
    <node id="1015588372" x="12351.51" y="21904.85" type="priority"/>
    <node id="1015588410" x="12493.68" y="21866.61" type="right_before_left"/>
    <node id="1015588434" x="12564.15" y="21845.67" type="priority"/>
    <node id="1015588539" x="12514.35" y="21818.31" type="priority"/>
    <node id="1015588564" x="12334.64" y="21827.57" type="priority"/>
    <node id="1015588602" x="12564.81" y="21906.37" type="priority"/>
    <node id="1015588608" x="12532.53" y="21796.88" type="priority"/>
    <node id="1015634644" x="12714.30" y="16875.44" type="priority"/>
    <node id="1015634655" x="13675.41" y="17429.30" type="right_before_left"/>
    <node id="1015634656" x="12327.64" y="15755.68" type="right_before_left"/>
    <node id="1015634658" x="13620.24" y="17389.91" type="priority"/>
    <node id="1015634667" x="12088.93" y="15638.01" type="priority"/>
    <node id="1015634669" x="12332.14" y="15762.35" type="priority"/>
    <node id="1015634679" x="12337.51" y="15771.14" type="priority"/>
    <node id="1015634734" x="13659.70" y="17458.97" type="priority"/>
    <node id="1015634735" x="13723.82" y="17369.88" type="priority"/>
    <node id="1015634754" x="12901.44" y="16239.88" type="priority"/>
    <node id="1015634790" x="13672.27" y="17441.36" type="priority"/>
    <node id="1015634807" x="13689.61" y="17417.42" type="right_before_left"/>
    <node id="1015634810" x="13016.46" y="17215.22" type="priority"/>
    <node id="1015634825" x="13726.46" y="17366.59" type="right_before_left"/>
    <node id="1015634829" x="13689.76" y="17479.94" type="priority"/>
    <node id="1015634832" x="13706.82" y="17393.65" type="priority"/>
    <node id="1015634840" x="12659.73" y="16273.66" type="priority"/>
    <node id="1015634843" x="12712.70" y="16370.98" type="priority"/>
    <node id="1015634847" x="12944.40" y="16723.52" type="right_before_left"/>
    <node id="1015634851" x="13501.50" y="17351.35" type="priority"/>
    <node id="1015634868" x="13645.63" y="17471.37" type="right_before_left"/>
    <node id="1015634884" x="12747.47" y="16598.46" type="priority"/>
    <node id="1015634888" x="13685.04" y="17415.87" type="right_before_left"/>
    <node id="1015634892" x="13706.67" y="17456.30" type="unregulated"/>
    <node id="1015634896" x="13642.27" y="17405.64" type="right_before_left"/>
    <node id="1015634900" x="13699.44" y="17403.84" type="priority"/>
    <node id="1015634917" x="13701.97" y="17462.91" type="priority"/>