<?xml version="1.0" encoding="UTF-8"?>

<!-- generated on 07/30/15 12:39:51 by SUMO duarouter Version 0.23.0
<?xml version="1.0" encoding="UTF-8"?>

<configuration xmlns:xsi="http://www.w3.org/2001/XMLSchema-instance" xsi:noNamespaceSchemaLocation="http://sumo.dlr.de/xsd/duarouterConfiguration.xsd">

    <input>
        <net-file value="C:\thangld\virtual_oulu\traffic_management/data/oulu.net.xml"/>
        <trip-files value="C:\thangld\virtual_oulu\traffic_management/tmp/EJwUTlMp0auKuksjz4n6/eXr0CGulvRWfobuv0d0N.xml"/>
    </input>

    <output>
        <output-file value="C:\thangld\virtual_oulu\traffic_management\data\oulu.rou.xml"/>
    </output>

    <processing>
        <ignore-errors value="true"/>
    </processing>

</configuration>
-->

<routes xmlns:xsi="http://www.w3.org/2001/XMLSchema-instance" xsi:noNamespaceSchemaLocation="http://sumo.dlr.de/xsd/routes_file.xsd">
    <vType id="default_car" length="5.00" minGap="2.00" maxSpeed="13.00">
        <carFollowing-Krauss accel="3.00" decel="200.40" sigma="1.00"/>
    </vType>
	<vType id="congestion_thing" length="1.00" minGap="2.00" maxSpeed="0.000001">
        <carFollowing-Krauss accel="0.000001" decel="0.000001" sigma="0.000001"/>
    </vType>
    
</routes>
