<?xml version="1.0" encoding="UTF-8"?>

<!-- generated on 07/23/15 15:00:06 by SUMO duarouter Version 0.23.0
<?xml version="1.0" encoding="UTF-8"?>

<configuration xmlns:xsi="http://www.w3.org/2001/XMLSchema-instance" xsi:noNamespaceSchemaLocation="http://sumo.dlr.de/xsd/duarouterConfiguration.xsd">

    <input>
        <net-file value="C:\thangld\virtual_oulu\data\oulu.net.xml"/>
        <trip-files value="C:\thangld\virtual_oulu\oulu_trip.xml"/>
    </input>

    <output>
        <output-file value="C:\thangld\virtual_oulu\oulu_result.rou.xml"/>
    </output>

    <processing>
        <ignore-errors value="true"/>
    </processing>

    <report>
        <log value="C:\thangld\virtual_oulu\trip_log.txt"/>
    </report>

</configuration>
-->

<routes xmlns:xsi="http://www.w3.org/2001/XMLSchema-instance" xsi:noNamespaceSchemaLocation="http://sumo.dlr.de/xsd/routes_file.xsd">
    <vType id="default_car" length="5.00" minGap="2.00" maxSpeed="50.00">
        <carFollowing-Krauss accel="1.00" decel="5.00" sigma="0.00"/>
    </vType>
    <vehicle id="1ZIzHqHdpSHrIOoHTkJL" type="default_car" depart="1.00">
        <route edges="-228448912#0 122254906#1 122254906#2 122254906#3 122254906#4 122254906#5 122254906#6 122254906#7 -122254908#2 -122254908#1 -122254908#0 -40990532#4 -40990532#3 -40990532#2 -40990532#1 -40990532#0 44922443#0 44922443#1 44922443#2 44922439#0 44922439#1 150909951#0 150909951#1 44922442#3 44922441 60917277#2 60917277#3 188875705#0 22702419 93418528#4 93418528#5 93418528#6 32434662 32434663#0 32434663#1 32434663#2 19803541 184566732 184566733 164757953#0 164757953#1 164757953#2 164757954#0 164757954#1 164757954#2 164757954#3 87412215 87412209#0 87412209#1 87412198#0 87412198#1 87412187#0 87412187#1 87412187#2 87412187#3 87412187#4 87412187#5 19745776#0 19745776#1 19745776#2 19745776#3 19745776#4 19745776#5 19745776#6 19745776#7 19745776#8 19745776#9 19745776#10 39730629#0 39730629#1 39730629#2 -39730629#2"/>
    </vehicle>
    <vehicle id="FyN4hup7BR5TmBMGWtUA" type="default_car" depart="1.00">
        <route edges="-30055922#6 87365596#0 -87365593#0 -30055922#4 -30055922#3 -30055922#2 -30055922#1 -30055922#0 -23858591#0 -51850625#2 -51850625#1 -51850625#0 -19789882#6 -19789882#5 -19789882#4 -19789882#3 -19789882#2 -19789882#1 -19789882#0 23206772#0 23206772#1 164757953#1 164757953#2 164757954#0 164757954#1 164757954#2 164757954#3 87412215 87412209#0 87412209#1 87412198#0 87412198#1 87412187#0 87412187#1 87412187#2 87412187#3 87412187#4 87412187#5 19745776#0 19745776#1 19745776#2 19745776#3 19745776#4 19745776#5 19745776#6 19745776#7 19745776#8 19745776#9 19745776#10 39730629#0 39730629#1 39730629#2 -39730629#2"/>
    </vehicle>
    <vehicle id="MfQz9eu7gfMZdLEfMNh0" type="default_car" depart="1.00">
        <route edges="38500182#0 -38500182#0 -45080861#3 -45080861#2 -45080861#1 -45080861#0 -147263840#5 -147263840#4 -147263840#3 -147263840#2 -147263840#1 -147263840#0 -147263848 -35868633#7 -35868633#6 -35868633#5 -35868633#4 -35868633#3 -35868633#2 -35868633#1 -35868633#0 -35868618#9 -61799602#0 -68585274#0 -61798242#2 -61798242#1 -61798242#0 -56753648#10 -56753648#9 -56753648#8 -56753648#7 -56753648#6 -56753648#5 -56753648#4 -56753648#3 -56753648#2 -56753648#1 -56753648#0 -37001181#2 -37001181#1 -37001181#0 -34572344#8 -34572344#7 -34572344#6 -34572344#5 -34572344#4 -34572344#3 -34572344#2 -34572344#1 -34572344#0 -4752178#2 -4752178#1 -4752178#0 19803837#0 19803837#1 19803837#2 -25723937 -25724037#2 -25724037#1 -25724037#0 -25845142#2 -25845142#1 -25845142#0 -192628910 -25724050 -39862131 34110817#0 34110817#1 34110817#2 -138704085 -44523921#4 -44523921#3 -44523921#2 -44523921#1 -44523921#0 -19789882#6 -19789882#5 -19789882#4 -19789882#3 -19789882#2 -19789882#1 -19789882#0 23206772#0 23206772#1 164757953#1 164757953#2 164757954#0 164757954#1 164757954#2 164757954#3 87412215 87412209#0 87412209#1 87412198#0 87412198#1 87412187#0 87412187#1 87412187#2 87412187#3 87412187#4 87412187#5 19745776#0 19745776#1 19745776#2 19745776#3 19745776#4 19745776#5 19745776#6 19745776#7 19745776#8 19745776#9 19745776#10 39730629#0 39730629#1 39730629#2 -39730629#2"/>
    </vehicle>
    <vehicle id="bvRohd11yC4XMSN0OVZo" type="default_car" depart="1.00">
        <route edges="132483504#1 -132483504#1 -132483504#0 -38705890#8 -38705890#7 -38705890#6 -38705890#5 -38705890#4 -38705890#3 -38705890#2 -38705890#1 -38705890#0 38705887#0 38705887#1 38705889#0 38705889#1 -39861361#11 -39861361#10 -39861361#9 -39861361#8 -39861361#7 -39861361#6 -39861361#5 -39861361#4 -39861361#3 -39861361#2 -39861361#1 -39861361#0 -4752178#3 -4752178#2 -4752178#1 -4752178#0 19803837#0 19803837#1 19803837#2 -25723937 -25724037#2 -25724037#1 -25724037#0 -25845142#2 -25845142#1 -25845142#0 -192628910 -25724050 -39862131 34110817#0 34110817#1 34110817#2 -138704085 -44523921#4 -44523921#3 -44523921#2 -44523921#1 -44523921#0 -19789882#6 -19789882#5 -19789882#4 -19789882#3 -19789882#2 -19789882#1 -19789882#0 23206772#0 23206772#1 164757953#1 164757953#2 164757954#0 164757954#1 164757954#2 164757954#3 87412215 87412209#0 87412209#1 87412198#0 87412198#1 87412187#0 87412187#1 87412187#2 87412187#3 87412187#4 87412187#5 19745776#0 19745776#1 19745776#2 19745776#3 19745776#4 19745776#5 19745776#6 19745776#7 19745776#8 19745776#9 19745776#10 39730629#0 39730629#1 39730629#2 -39730629#2"/>
    </vehicle>
    <vehicle id="fouNL6XmjFd0ecODjkTB" type="default_car" depart="1.00">
        <route edges="36790273#0 -36790273#0 -60834610#10 -60834610#9 -60834610#8 -25708515#3 -25708515#2 -25708515#1 -25708515#0 -34107838#0 19789929 131526079#0 131526079#1 138910339 138911799#0 138911799#1 138911799#2 138911799#3 131526082#0 131526082#1 -50287575#4 -25335669#0 -87507013#7 -87507013#6 23195901#3 22702315#0 31349838#3 31349838#4 -93301255#1 -50287575#1 -50287575#0 -22702280 184569527#0 184569527#1 184569559#2 184569570 184569560#0 184569523#0 184569523#1 184569517 184569519 184569525#0 58679698#1 -61978384#0 -19802152 -119159843#1 -119159843#0 -41427629 -19803272 160042431#0 160042431#1 160042434 206352797#0 206352797#1 -184585577#15 -24810004#15 -24810004#14 100781133#0 206352797#3 206352517#0 206352517#1 206352517#2 206352517#3 -19745776#17 -19745776#16 -19745776#15 -19745776#14 -19745776#13 -19745776#12 -19745776#11 39730629#0 39730629#1 39730629#2 -39730629#2"/>
    </vehicle>
    <vehicle id="C3WfR0zrnSXR9fBm5wID" type="default_car" depart="2.00">
        <route edges="-22984106#0 150996482#7 150996482#8 150996482#9 150996482#10 150996482#11 23206706 -23202028 19802507 43309928#0 43309928#1 43309928#2 43309928#3 43309928#4 43309928#5 19844999#0 19844999#1 19844999#2 -59284338#0 -24846873#13 -24846873#12 -23202041#0 19844999#4 19844999#5 19844999#6 19844999#7 26046656#9 -24846873#4 -24846873#3 88479179#0 19844999#9 19844999#10 19844999#11 19844999#12 34108608#0 34108608#1 34108608#2 23080176#0 23080176#1 23080176#2 23080176#3 34106936#0 34106936#1 85480357 23014769 28826860#0 28826860#1 28826859 28826862#0 41661133#0 38418900#3 32777181#1 28826862#2 28826864 43233313#0 43233313#1 19790155 185571103 185571102 173839818 34106939#0 34106939#1 6009024#0 6009024#1 -35266857#1 -35266857#0 -87340517#16 -35202720#5 62047525#1 67021586#0 67021586#1 204889440#0 204889440#1 204889440#2 204889440#3 204889440#4 204889427#0 204889427#1 204889427#2 204889427#3 204889427#4 204889427#5 204889427#6 204889427#7 204889427#8 23652332#0 23652332#1 23652332#2 23652332#3 23652332#4 23652332#5 23652332#6 23652332#7 23652332#8 23652332#9 23652332#10 23652332#11 23652332#12 -28826374#8 -28826374#7 -28826374#6 -28826374#5 -28826374#4 -28826374#3 -28826374#2 -28826374#1 -28826374#0 -4995635#1 -4995635#0 89930757#0 89930757#1 89930757#2 19749660#0 19749660#1 19749660#2 19749660#3 184585577#0 184585577#1 184585577#2 184585577#3 184585577#4 184585577#5 184585577#6 184585577#7 184585577#8 184585577#9 184585577#10 184585577#11 184585577#12 184585577#13 184585577#14 -24810004#15 -24810004#14 100781133#0 206352797#3 206352517#0 206352517#1 206352517#2 206352517#3 -19745776#17 -19745776#16 -19745776#15 -19745776#14 -19745776#13 -19745776#12 -19745776#11 39730629#0 39730629#1 39730629#2 -39730629#2"/>
    </vehicle>
    <vehicle id="NbIupvpCoZbnymCiyr5V" type="default_car" depart="2.00">
        <route edges="279432348#1 279432348#2 22792362#2 22792362#3 22792362#4 22792362#5 22792362#6 22792362#7 22792362#8 19789929 131526079#0 131526079#1 138910339 138911799#0 138911799#1 138911799#2 138911799#3 131526082#0 131526082#1 -50287575#4 -25335669#0 -87507013#7 -87507013#6 23195901#3 22702315#0 31349838#3 31349838#4 -93301255#1 -50287575#1 -50287575#0 -22702280 184569527#0 184569527#1 184569559#2 184569570 184569560#0 184569523#0 184569523#1 184569517 184569519 184569525#0 58679698#1 -61978384#0 -19802152 -119159843#1 -119159843#0 -41427629 -19803272 160042431#0 160042431#1 160042434 206352797#0 206352797#1 -184585577#15 -24810004#15 -24810004#14 100781133#0 206352797#3 206352517#0 206352517#1 206352517#2 206352517#3 -19745776#17 -19745776#16 -19745776#15 -19745776#14 -19745776#13 -19745776#12 -19745776#11 39730629#0 39730629#1 39730629#2 -39730629#2"/>
    </vehicle>
    <vehicle id="Ph9G0HGrpQ0Sp9OrPUFN" type="default_car" depart="2.00">
        <route edges="-19843466#1 19843466#1 19843466#2 146968306 26571014#0 26571014#1 -26570991#3 -26570991#2 -26570991#1 -26570991#0 -26570992 -26570943#3 -26570943#2 19801326#6 22698655 -22873216#4 -22873216#3 -22873216#2 27348418 277543868 277543877 277543882 163825801 163825800 97398577 97398574 277069568 51385975 277069567 277069569 276802969 19786000 276802965#0 19790120#0 19790120#1 19790120#2 19790120#3 10626261#0 10626261#1 10626261#2 10626261#3 32064558#0 32064558#1 34108608#0 34108608#1 34108608#2 23080176#0 23080176#1 23080176#2 23080176#3 34106936#0 34106936#1 85480357 23014769 28826860#0 28826860#1 28826859 28826862#0 41661133#0 38418900#3 32777181#1 28826862#2 28826864 43233313#0 43233313#1 19790155 185571103 185571102 173839818 34106939#0 34106939#1 6009024#0 6009024#1 -35266857#1 -35266857#0 -87340517#16 -35202720#5 62047525#1 67021586#0 67021586#1 204889440#0 204889440#1 204889440#2 204889440#3 204889440#4 204889427#0 204889427#1 204889427#2 204889427#3 204889427#4 204889427#5 204889427#6 204889427#7 204889427#8 23652332#0 23652332#1 23652332#2 23652332#3 23652332#4 23652332#5 23652332#6 23652332#7 23652332#8 23652332#9 23652332#10 23652332#11 23652332#12 -28826374#8 -28826374#7 -28826374#6 -28826374#5 -28826374#4 -28826374#3 -28826374#2 -28826374#1 -28826374#0 -4995635#1 -4995635#0 89930757#0 89930757#1 89930757#2 19749660#0 19749660#1 19749660#2 19749660#3 184585577#0 184585577#1 184585577#2 184585577#3 184585577#4 184585577#5 184585577#6 184585577#7 184585577#8 184585577#9 184585577#10 184585577#11 184585577#12 184585577#13 184585577#14 -24810004#15 -24810004#14 100781133#0 206352797#3 206352517#0 206352517#1 206352517#2 206352517#3 -19745776#17 -19745776#16 -19745776#15 -19745776#14 -19745776#13 -19745776#12 -19745776#11 39730629#0 39730629#1 39730629#2 -39730629#2"/>
    </vehicle>
    <vehicle id="Vil62NilhDWaFF9HWUgZ" type="default_car" depart="2.00">
        <route edges="23399381#1 -23399381#1 -23399381#0 -31766343#2 -23515165#0 60910929#0 19737408#2 186832076 186832077#0 186832077#1 186832077#2 182488109 35128468 35128469#0 35128469#1 35128469#2 -127731875#5 -127731875#4 -127731875#3 -127731875#2 -127731875#1 -127731875#0 127731876#0 127731876#1 127731876#2 127731876#3 50809911#2 50809911#3 50809912 87538399#2 277069549 277069567 277069569 276802969 19786000 276802965#0 19790120#0 19790120#1 19790120#2 19790120#3 10626261#0 10626261#1 10626261#2 10626261#3 32064558#0 32064558#1 34108608#0 34108608#1 34108608#2 23080176#0 23080176#1 23080176#2 23080176#3 34106936#0 34106936#1 85480357 23014769 28826860#0 28826860#1 28826859 28826862#0 41661133#0 38418900#3 32777181#1 28826862#2 28826864 43233313#0 43233313#1 19790155 185571103 185571102 173839818 34106939#0 34106939#1 6009024#0 6009024#1 -35266857#1 -35266857#0 -87340517#16 -35202720#5 62047525#1 67021586#0 67021586#1 204889440#0 204889440#1 204889440#2 204889440#3 204889440#4 204889427#0 204889427#1 204889427#2 204889427#3 204889427#4 204889427#5 204889427#6 204889427#7 204889427#8 23652332#0 23652332#1 23652332#2 23652332#3 23652332#4 23652332#5 23652332#6 23652332#7 23652332#8 23652332#9 23652332#10 23652332#11 23652332#12 -28826374#8 -28826374#7 -28826374#6 -28826374#5 -28826374#4 -28826374#3 -28826374#2 -28826374#1 -28826374#0 -4995635#1 -4995635#0 89930757#0 89930757#1 89930757#2 19749660#0 19749660#1 19749660#2 19749660#3 184585577#0 184585577#1 184585577#2 184585577#3 184585577#4 184585577#5 184585577#6 184585577#7 184585577#8 184585577#9 184585577#10 184585577#11 184585577#12 184585577#13 184585577#14 -24810004#15 -24810004#14 100781133#0 206352797#3 206352517#0 206352517#1 206352517#2 206352517#3 -19745776#17 -19745776#16 -19745776#15 -19745776#14 -19745776#13 -19745776#12 -19745776#11 39730629#0 39730629#1 39730629#2 -39730629#2"/>
    </vehicle>
    <vehicle id="VjBtI0kGdZh2kJSZPWb2" type="default_car" depart="2.00">
        <route edges="-56239052#0 56239034#5 56239034#6 56239034#7 56689375#0 56689375#1 -56753648#10 -56753648#9 -56753648#8 -56753648#7 -56753648#6 -56753648#5 -56753648#4 -56753648#3 -56753648#2 -56753648#1 -56753648#0 -37001181#2 -37001181#1 -37001181#0 -34572344#8 -34572344#7 -34572344#6 -34572344#5 -34572344#4 -34572344#3 -34572344#2 -34572344#1 -34572344#0 -4752178#2 -4752178#1 -4752178#0 19803837#0 19803837#1 19803837#2 -25723937 -25724037#2 -25724037#1 -25724037#0 -25845142#2 -25845142#1 -25845142#0 -192628910 -25724050 -39862131 34110817#0 34110817#1 34110817#2 -138704085 -44523921#4 -44523921#3 -44523921#2 -44523921#1 -44523921#0 -19789882#6 -19789882#5 -19789882#4 -19789882#3 -19789882#2 -19789882#1 -19789882#0 23206772#0 23206772#1 164757953#1 164757953#2 164757954#0 164757954#1 164757954#2 164757954#3 87412215 87412209#0 87412209#1 87412198#0 87412198#1 87412187#0 87412187#1 87412187#2 87412187#3 87412187#4 87412187#5 19745776#0 19745776#1 19745776#2 19745776#3 19745776#4 19745776#5 19745776#6 19745776#7 19745776#8 19745776#9 19745776#10 39730629#0 39730629#1 39730629#2 -39730629#2"/>
    </vehicle>
    <vehicle id="g1quFlO7HoEdTmQ4hbxV" type="default_car" depart="2.00">
        <route edges="87917143#2 -87917143#2 -87917143#1 -87917143#0 -24971056 -87917150#1 -87917150#0 -25334951#10 -25334951#9 -25334951#8 -25334951#7 -25334951#6 -25334951#5 -25334951#4 -25334951#3 -25334951#2 -25334951#1 188870867#3 93465870 93465875 93465873 87503979 87503978#0 87503978#1 87503978#2 87503978#3 87503978#4 87503978#5 87503978#6 87503978#7 87503978#8 87503978#9 87503978#10 87503978#11 34107466 39953731 39959735 39953730 19790353#0 -100771789#1 -100771789#0 -40003209#0 -29996405#1 -87495568#0 -35870344 -204889431#2 -204889431#1 -204889431#0 -204890995 -69915361 -204889426 -69915363#1 -69915363#0 -246640768#1 -246640768#0 -204889441 -69915362 -69914764 -69914765 -69914538 -69914539#1 -69914539#0 -70007766 34107464#0 34107464#1 124669479#0 124669479#1 19801428#1 19801428#2 19801428#3 19801428#4 19801428#5 19801428#6 19801428#7 19789751#2 19789751#3 19789751#4 19789751#5 19789751#6 19789751#7 19789751#8 19789751#9 19789751#10 19789751#11 19789751#12 19789751#13 19789751#14 19789751#15 19801457#0 23513296 28826373#0 -29107593 28826370#15 -47110045#1 -4995635#0 89930757#0 89930757#1 89930757#2 19749660#0 19749660#1 19749660#2 19749660#3 184585577#0 184585577#1 184585577#2 184585577#3 184585577#4 184585577#5 184585577#6 184585577#7 184585577#8 184585577#9 184585577#10 184585577#11 184585577#12 184585577#13 184585577#14 -24810004#15 -24810004#14 100781133#0 206352797#3 206352517#0 206352517#1 206352517#2 206352517#3 -19745776#17 -19745776#16 -19745776#15 -19745776#14 -19745776#13 -19745776#12 -19745776#11 39730629#0 39730629#1 39730629#2 -39730629#2"/>
    </vehicle>
    <vehicle id="FndO65sLvWgriJwZKwCp" type="default_car" depart="3.00">
        <route edges="-44523920#8 -44523920#7 -44523920#6 -44523920#5 -44523920#4 -44523920#3 -44523920#2 -44523920#1 -44523920#0 -44523919 -23057940#1 -23057940#0 44523915#0 44523915#1 44523918#0 44523918#1 19801634#0 19801634#1 19801634#2 19801638#0 19801638#1 29983555 188875701 127942272#0 127942272#1 188875705#0 22702419 93418528#4 93418528#5 93418528#6 32434662 32434663#0 32434663#1 32434663#2 19803541 184566732 184566733 164757953#0 164757953#1 164757953#2 164757954#0 164757954#1 164757954#2 164757954#3 87412215 87412209#0 87412209#1 87412198#0 87412198#1 87412187#0 87412187#1 87412187#2 87412187#3 87412187#4 87412187#5 19745776#0 19745776#1 19745776#2 19745776#3 19745776#4 19745776#5 19745776#6 19745776#7 19745776#8 19745776#9 19745776#10 39730629#0 39730629#1 39730629#2 -39730629#2"/>
    </vehicle>
    <vehicle id="Ge4wcLpFEIu4UKuPY9op" type="default_car" depart="3.00">
        <route edges="-19712968#4 -19712968#3 -19712968#2 -19712968#1 -19712968#0 -25724037#1 -25724037#0 -25845142#2 -25845142#1 -25845142#0 -192628910 -25724050 -39862131 34110817#0 34110817#1 34110817#2 -138704085 -44523921#4 -44523921#3 -44523921#2 -44523921#1 -44523921#0 -19789882#6 -19789882#5 -19789882#4 -19789882#3 -19789882#2 -19789882#1 -19789882#0 23206772#0 23206772#1 164757953#1 164757953#2 164757954#0 164757954#1 164757954#2 164757954#3 87412215 87412209#0 87412209#1 87412198#0 87412198#1 87412187#0 87412187#1 87412187#2 87412187#3 87412187#4 87412187#5 19745776#0 19745776#1 19745776#2 19745776#3 19745776#4 19745776#5 19745776#6 19745776#7 19745776#8 19745776#9 19745776#10 39730629#0 39730629#1 39730629#2 -39730629#2"/>
    </vehicle>
    <vehicle id="GoqnEuFSuUXWa45YVV5G" type="default_car" depart="3.00">
        <route edges="-23195900#4 23195900#4 23195900#5 23195900#6 23195900#7 23195900#8 52057200#0 52057200#1 52057200#2 52057200#3 52057200#4 52057200#5 52057200#6 52057200#7 52057200#8 -23195903#6 -23195903#5 -23195903#4 -23195903#3 -23195903#2 -23195903#1 -89214707#10 -89214707#9 -30055952#8 -184569532#3 23102909#0 -89214699#2 -89214699#1 30055955#0 -184569532#1 -184569532#0 184569538#0 -26358931#11 -26358931#10 -26358931#9 -29419606#17 -29419606#16 184569523#1 184569517 184569519 184569525#0 58679698#1 -61978384#0 -19802152 -119159843#1 -119159843#0 -41427629 -19803272 160042431#0 160042431#1 160042434 206352797#0 206352797#1 -184585577#15 -24810004#15 -24810004#14 100781133#0 206352797#3 206352517#0 206352517#1 206352517#2 206352517#3 -19745776#17 -19745776#16 -19745776#15 -19745776#14 -19745776#13 -19745776#12 -19745776#11 39730629#0 39730629#1 39730629#2 -39730629#2"/>
    </vehicle>
    <vehicle id="UeMykhzGp89y6iDFtsQB" type="default_car" depart="3.00">
        <route edges="5121917#0 -5121917#0 -5121912#1 -5121912#0 5121105#0 5121105#1 5121105#2 5094496 10626262 5121098#0 5121098#1 5121098#2 5121098#3 5121100 28095831#0 23394774#0 23394774#1 -170967303#1 -170967303#0 -170967304 -5121899#1 -5121899#0 -8160356#7 -8160356#6 -8160356#5 -8160356#4 -8160356#3 -8160356#2 -8160356#1 -8160356#0 -6009031#2 -6009031#1 25000348#3 25000348#4 87363943#0 -22937751#19 -22937751#18 -22937751#17 -22937751#16 -22937751#15 -22937751#14 -22937751#13 -22937751#12 -22937751#11 -159912798#0 25000348#13 25000348#14 159912797#0 -22937751#8 -22937751#7 -22937751#6 -22937751#5 -22937751#4 -59398315#1 -59398315#0 -28826375#3 -28826375#2 -28826375#1 -28826375#0 -28826374#8 -28826374#7 -28826374#6 -28826374#5 -28826374#4 -28826374#3 -28826374#2 -28826374#1 -28826374#0 -4995635#1 -4995635#0 89930757#0 89930757#1 89930757#2 19749660#0 19749660#1 19749660#2 19749660#3 184585577#0 184585577#1 184585577#2 184585577#3 184585577#4 184585577#5 184585577#6 184585577#7 184585577#8 184585577#9 184585577#10 184585577#11 184585577#12 184585577#13 184585577#14 -24810004#15 -24810004#14 100781133#0 206352797#3 206352517#0 206352517#1 206352517#2 206352517#3 -19745776#17 -19745776#16 -19745776#15 -19745776#14 -19745776#13 -19745776#12 -19745776#11 39730629#0 39730629#1 39730629#2 -39730629#2"/>
    </vehicle>
    <vehicle id="x5TwXc5yqrJHI8NBAZJ6" type="default_car" depart="3.00">
        <route edges="-30055966#7 30055966#7 -25836705#2 -25836705#1 -25836705#0 32434663#2 19803541 184566732 184566733 164757953#0 164757953#1 164757953#2 164757954#0 164757954#1 164757954#2 164757954#3 87412215 87412209#0 87412209#1 87412198#0 87412198#1 87412187#0 87412187#1 87412187#2 87412187#3 87412187#4 87412187#5 19745776#0 19745776#1 19745776#2 19745776#3 19745776#4 19745776#5 19745776#6 19745776#7 19745776#8 19745776#9 19745776#10 39730629#0 39730629#1 39730629#2 -39730629#2"/>
    </vehicle>
    <vehicle id="2G6timadfHcGgIl64tYM" type="default_car" depart="4.00">
        <route edges="24875891#8 -19846227#3 -19846227#2 -19846227#1 -19846227#0 22815934#0 22815934#1 22815934#2 -84236691#11 -84236691#10 -84236691#9 -84236691#8 -84236691#7 -84236691#6 -84236691#5 -84236691#4 -84236691#3 -84236691#2 -84236691#1 -84236691#0 -84236696 -71882515#11 -71882515#10 -71882515#9 -71882515#8 -71882515#7 -71882515#6 -71882515#5 -71882515#4 -71882515#3 -71882515#2 -71882515#1 -71882515#0 -19846064#1 -19846064#0 71882506#0 71882506#1 26812332#0 123859603#1 71741823#0 71741823#1 71741819 108312985 10626258 10626259#0 10626259#1 10626259#2 28445066 28445065#0 28445065#1 24522352 24522353 204889428#0 -24875924#1 -100771793 32848556#0 -100771789#2 -100771789#1 -100771789#0 -40003209#0 -29996405#1 -87495568#0 -35870344 -204889431#2 -204889431#1 -204889431#0 -204890995 -69915361 -204889426 -69915363#1 -69915363#0 -246640768#1 -246640768#0 -204889441 -69915362 -69914764 -69914765 -69914538 -69914539#1 -69914539#0 -70007766 34107464#0 34107464#1 124669479#0 124669479#1 19801428#1 19801428#2 19801428#3 19801428#4 19801428#5 19801428#6 19801428#7 19789751#2 19789751#3 19789751#4 19789751#5 19789751#6 19789751#7 19789751#8 19789751#9 19789751#10 19789751#11 19789751#12 19789751#13 19789751#14 19789751#15 19801457#0 23513296 28826373#0 -29107593 28826370#15 -47110045#1 -4995635#0 89930757#0 89930757#1 89930757#2 19749660#0 19749660#1 19749660#2 19749660#3 184585577#0 184585577#1 184585577#2 184585577#3 184585577#4 184585577#5 184585577#6 184585577#7 184585577#8 184585577#9 184585577#10 184585577#11 184585577#12 184585577#13 184585577#14 -24810004#15 -24810004#14 100781133#0 206352797#3 206352517#0 206352517#1 206352517#2 206352517#3 -19745776#17 -19745776#16 -19745776#15 -19745776#14 -19745776#13 -19745776#12 -19745776#11 39730629#0 39730629#1 39730629#2 -39730629#2"/>
    </vehicle>
    <vehicle id="3Z5NjS0gzMDSPFhBGRp5" type="default_car" depart="4.00">
        <route edges="24846883#3 24846886#0 24846886#1 24846887#1 24846887#2 -24598284#4 -24598284#3 -24598284#2 -24598284#1 -24598284#0 129015965 23014680#0 23014680#1 23014680#2 23014680#3 -34201454#5 -34201454#4 -40056767#2 -40056767#1 -87785855#2 -87785855#1 -87785855#0 -87785868 -31771221 -33504182 -204821668#2 -204821668#1 -24768918#6 -24768918#5 -24768918#4 -24768918#3 -24768918#2 -24768918#1 -24768918#0 25782455#0 25782455#1 25782455#2 25782455#3 25782455#4 -38436940#6 -38436940#5 -38436940#4 -38436940#3 -38436940#2 -38436940#1 87371633 24768914#2 24768914#3 24768914#4 -70069086#28 -70069086#27 -70069086#26 -70069086#25 -70069086#24 85480357 23014769 28826860#0 28826860#1 28826859 28826862#0 41661133#0 38418900#3 32777181#1 28826862#2 28826864 43233313#0 43233313#1 19790155 185571103 185571102 173839818 34106939#0 34106939#1 6009024#0 6009024#1 -35266857#1 -35266857#0 -87340517#16 -35202720#5 62047525#1 67021586#0 67021586#1 204889440#0 204889440#1 204889440#2 204889440#3 204889440#4 204889427#0 204889427#1 204889427#2 204889427#3 204889427#4 204889427#5 204889427#6 204889427#7 204889427#8 23652332#0 23652332#1 23652332#2 23652332#3 23652332#4 23652332#5 23652332#6 23652332#7 23652332#8 23652332#9 23652332#10 23652332#11 23652332#12 -28826374#8 -28826374#7 -28826374#6 -28826374#5 -28826374#4 -28826374#3 -28826374#2 -28826374#1 -28826374#0 -4995635#1 -4995635#0 89930757#0 89930757#1 89930757#2 19749660#0 19749660#1 19749660#2 19749660#3 184585577#0 184585577#1 184585577#2 184585577#3 184585577#4 184585577#5 184585577#6 184585577#7 184585577#8 184585577#9 184585577#10 184585577#11 184585577#12 184585577#13 184585577#14 -24810004#15 -24810004#14 100781133#0 206352797#3 206352517#0 206352517#1 206352517#2 206352517#3 -19745776#17 -19745776#16 -19745776#15 -19745776#14 -19745776#13 -19745776#12 -19745776#11 39730629#0 39730629#1 39730629#2 -39730629#2"/>
    </vehicle>
    <vehicle id="6NM2W88iy2ka9qOqgngg" type="default_car" depart="4.00">
        <route edges="25723844#5 -16091314#2 -16091314#1 -16091314#0 35871664#2 35871664#3 35871664#4 35871664#5 35871664#6 -25724078#1 -25724078#0 -34110816 -138704085 -44523921#4 -44523921#3 -44523921#2 -44523921#1 -44523921#0 -19789882#6 -19789882#5 -19789882#4 -19789882#3 -19789882#2 -19789882#1 -19789882#0 23206772#0 23206772#1 164757953#1 164757953#2 164757954#0 164757954#1 164757954#2 164757954#3 87412215 87412209#0 87412209#1 87412198#0 87412198#1 87412187#0 87412187#1 87412187#2 87412187#3 87412187#4 87412187#5 19745776#0 19745776#1 19745776#2 19745776#3 19745776#4 19745776#5 19745776#6 19745776#7 19745776#8 19745776#9 19745776#10 39730629#0 39730629#1 39730629#2 -39730629#2"/>
    </vehicle>
    <vehicle id="lLvTnW7xEw25jrNirFXI" type="default_car" depart="4.00">
        <route edges="-28052188#2 28052188#2 28052188#3 28052188#4 28052188#5 -28030082#3 -28030082#2 -28030082#1 -28030082#0 -28030080 -43308934#5 -43308934#4 -43308934#3 -43308934#2 -43308934#1 -43308934#0 -22432193#2 -22432193#1 -22432193#0 -20189160 -28851294 -26828724 19801247 19802507 43309928#0 43309928#1 43309928#2 43309928#3 43309928#4 43309928#5 19844999#0 19844999#1 19844999#2 -59284338#0 -24846873#13 -24846873#12 -23202041#0 19844999#4 19844999#5 19844999#6 19844999#7 26046656#9 -24846873#4 -24846873#3 88479179#0 19844999#9 19844999#10 19844999#11 19844999#12 34108608#0 34108608#1 34108608#2 23080176#0 23080176#1 23080176#2 23080176#3 34106936#0 34106936#1 85480357 23014769 28826860#0 28826860#1 28826859 28826862#0 41661133#0 38418900#3 32777181#1 28826862#2 28826864 43233313#0 43233313#1 19790155 185571103 185571102 173839818 34106939#0 34106939#1 6009024#0 6009024#1 -35266857#1 -35266857#0 -87340517#16 -35202720#5 62047525#1 67021586#0 67021586#1 204889440#0 204889440#1 204889440#2 204889440#3 204889440#4 204889427#0 204889427#1 204889427#2 204889427#3 204889427#4 204889427#5 204889427#6 204889427#7 204889427#8 23652332#0 23652332#1 23652332#2 23652332#3 23652332#4 23652332#5 23652332#6 23652332#7 23652332#8 23652332#9 23652332#10 23652332#11 23652332#12 -28826374#8 -28826374#7 -28826374#6 -28826374#5 -28826374#4 -28826374#3 -28826374#2 -28826374#1 -28826374#0 -4995635#1 -4995635#0 89930757#0 89930757#1 89930757#2 19749660#0 19749660#1 19749660#2 19749660#3 184585577#0 184585577#1 184585577#2 184585577#3 184585577#4 184585577#5 184585577#6 184585577#7 184585577#8 184585577#9 184585577#10 184585577#11 184585577#12 184585577#13 184585577#14 -24810004#15 -24810004#14 100781133#0 206352797#3 206352517#0 206352517#1 206352517#2 206352517#3 -19745776#17 -19745776#16 -19745776#15 -19745776#14 -19745776#13 -19745776#12 -19745776#11 39730629#0 39730629#1 39730629#2 -39730629#2"/>
    </vehicle>
    <vehicle id="oIE0cm7nvVQ3NUdFMzHP" type="default_car" depart="4.00">
        <route edges="26571321#2 26571321#3 26571321#4 26571321#5 26571321#6 26571321#7 26571321#8 26571321#9 26571321#10 26571321#11 26571321#12 26571321#13 26571321#14 -26571279#4 -26571279#3 -26571279#2 -26571279#1 -26571279#0 22698599#1 22698599#2 -22698595#5 -22698595#4 -22698595#3 -22698595#2 -22698595#1 -22698595#0 19736041#1 19736041#2 -22873216#7 -22873216#6 -22873216#5 -22873216#4 -22873216#3 -22873216#2 27348418 277543868 277543877 277543882 163825801 163825800 97398577 97398574 277069568 51385975 277069567 277069569 276802969 19786000 276802965#0 19790120#0 19790120#1 19790120#2 19790120#3 10626261#0 10626261#1 10626261#2 10626261#3 32064558#0 32064558#1 34108608#0 34108608#1 34108608#2 23080176#0 23080176#1 23080176#2 23080176#3 34106936#0 34106936#1 85480357 23014769 28826860#0 28826860#1 28826859 28826862#0 41661133#0 38418900#3 32777181#1 28826862#2 28826864 43233313#0 43233313#1 19790155 185571103 185571102 173839818 34106939#0 34106939#1 6009024#0 6009024#1 -35266857#1 -35266857#0 -87340517#16 -35202720#5 62047525#1 67021586#0 67021586#1 204889440#0 204889440#1 204889440#2 204889440#3 204889440#4 204889427#0 204889427#1 204889427#2 204889427#3 204889427#4 204889427#5 204889427#6 204889427#7 204889427#8 23652332#0 23652332#1 23652332#2 23652332#3 23652332#4 23652332#5 23652332#6 23652332#7 23652332#8 23652332#9 23652332#10 23652332#11 23652332#12 -28826374#8 -28826374#7 -28826374#6 -28826374#5 -28826374#4 -28826374#3 -28826374#2 -28826374#1 -28826374#0 -4995635#1 -4995635#0 89930757#0 89930757#1 89930757#2 19749660#0 19749660#1 19749660#2 19749660#3 184585577#0 184585577#1 184585577#2 184585577#3 184585577#4 184585577#5 184585577#6 184585577#7 184585577#8 184585577#9 184585577#10 184585577#11 184585577#12 184585577#13 184585577#14 -24810004#15 -24810004#14 100781133#0 206352797#3 206352517#0 206352517#1 206352517#2 206352517#3 -19745776#17 -19745776#16 -19745776#15 -19745776#14 -19745776#13 -19745776#12 -19745776#11 39730629#0 39730629#1 39730629#2 -39730629#2"/>
    </vehicle>
    <vehicle id="rUpzpDCDH0dD8lo7nF1i" type="default_car" depart="4.00">